1

                    Execution started at 20201016.145903         



                    ---------------------------------------
                                     SWAN
                    SIMULATION OF WAVES IN NEAR SHORE AREAS
                             VERSION NUMBER 41.31               
                    ---------------------------------------


    
 PROJ '05_vortex' '0000' 'GENERAL'
    
 $
    
 MODE NONSTAT
    
 COORDINATES SPHER CCM
    
 SET level=0 cdcap=0.0025   NAUTICAL
    
 $
    
 CGRID REGULAR 163.5 0.5 0 15 13 110 96 CIRCLE 72 0.03 1.00
 Number of meshes in sigma-space: MSC-1 =  37
    
 $
    
 INPGRID BOTTOM REGULAR 163.5020833333333 0.5020833333333314 0 3599 3119 0.00416550925925926 0.004165331196581198
    
 READINP BOTTOM 1 'depth_main.dat' 3 0 FREE
    
 $
    
 INPGRID  WIND  REGULAR 163.5 0.5 0 110 96 0.13636363636363635 0.13541666666666666 NONSTAT 20000102.0000 30 MIN 20000102.0500
    
 READINP  WIND 1. SERIES 'series_wind.dat' 3 0 FREE
 ** Error            : Unexpected end of file while reading UNKNOWN_FILE
   0.0000E+00  0.0000E+00  0.0000E+00  0.0000E+00  0.0000E+00  0.0000E+00  0.0000E+00  0.0000E+00  0.0000E+00  0.0000E+00
   0.0000E+00  0.0000E+00  0.0000E+00  0.0000E+00  0.0000E+00  0.0000E+00  0.0000E+00  0.0000E+00  0.0000E+00  0.0000E+00
   0.0000E+00  0.0000E+00  0.0000E+00  0.0000E+00  0.0000E+00  0.0000E+00  0.0000E+00  0.0000E+00  0.0000E+00  0.0000E+00
   0.0000E+00  0.0000E+00  0.0000E+00  0.0000E+00  0.0000E+00  0.0000E+00  0.0000E+00  0.0000E+00  0.0000E+00  0.0000E+00
   0.0000E+00  0.0000E+00  0.0000E+00  0.0000E+00  0.0000E+00  0.0000E+00  0.0000E+00  0.0000E+00  0.0000E+00  0.0000E+00
   0.0000E+00  0.0000E+00  0.0000E+00  0.0000E+00  0.0000E+00  0.0000E+00  0.0000E+00  0.0000E+00  0.0000E+00  0.0000E+00
   0.0000E+00  0.0000E+00  0.0000E+00  0.0000E+00  0.0000E+00  0.0000E+00  0.0000E+00  0.0000E+00  0.0000E+00  0.0000E+00
   0.0000E+00  0.0000E+00  0.0000E+00  0.0000E+00  0.0000E+00  0.0000E+00  0.0000E+00  0.0000E+00  0.0000E+00  0.0000E+00
   0.0000E+00  0.0000E+00  0.0000E+00  0.0000E+00  0.0000E+00  0.0000E+00  0.0000E+00  0.0000E+00  0.0000E+00  0.0000E+00
   0.0000E+00  0.0000E+00  0.0000E+00  0.0000E+00  0.0000E+00  0.0000E+00  0.0000E+00  0.0000E+00  0.0000E+00  0.0000E+00
   0.0000E+00  0.0000E+00  0.0000E+00  0.0000E+00  0.0000E+00  0.0000E+00  0.0000E+00  0.0000E+00  0.0000E+00  0.0000E+00
   0.0000E+00
  -0.2440E+01 -0.2470E+01 -0.2500E+01 -0.2540E+01 -0.2580E+01 -0.2610E+01 -0.2650E+01 -0.2690E+01 -0.2730E+01 -0.2770E+01
  -0.2810E+01 -0.2850E+01 -0.2890E+01 -0.2930E+01 -0.2980E+01 -0.3020E+01 -0.3070E+01 -0.3110E+01 -0.3160E+01 -0.3210E+01
  -0.3250E+01 -0.3300E+01 -0.3350E+01 -0.3400E+01 -0.3450E+01 -0.3500E+01 -0.3550E+01 -0.3610E+01 -0.3660E+01 -0.3710E+01
  -0.3770E+01 -0.3820E+01 -0.3880E+01 -0.3940E+01 -0.3990E+01 -0.4050E+01 -0.4110E+01 -0.4170E+01 -0.4230E+01 -0.4280E+01
  -0.4340E+01 -0.4400E+01 -0.4460E+01 -0.4520E+01 -0.4580E+01 -0.4640E+01 -0.4700E+01 -0.4760E+01 -0.4820E+01 -0.4870E+01
  -0.4930E+01 -0.4990E+01 -0.5040E+01 -0.5100E+01 -0.5150E+01 -0.5200E+01 -0.5250E+01 -0.5300E+01 -0.5340E+01 -0.5380E+01
  -0.5420E+01 -0.5460E+01 -0.5490E+01 -0.5520E+01 -0.5550E+01 -0.5570E+01 -0.5590E+01 -0.5600E+01 -0.5610E+01 -0.5610E+01
  -0.5610E+01 -0.5600E+01 -0.5580E+01 -0.5560E+01 -0.5520E+01 -0.5480E+01 -0.5440E+01 -0.5380E+01 -0.5320E+01 -0.5240E+01
  -0.5160E+01 -0.5060E+01 -0.4960E+01 -0.4840E+01 -0.4720E+01 -0.4580E+01 -0.4440E+01 -0.4280E+01 -0.4110E+01 -0.3930E+01
  -0.3740E+01 -0.3540E+01 -0.3330E+01 -0.3110E+01 -0.2880E+01 -0.2650E+01 -0.2400E+01 -0.2140E+01 -0.1880E+01 -0.1620E+01
  -0.1340E+01 -0.1060E+01 -0.7800E+00 -0.5000E+00 -0.2100E+00  0.7000E-01  0.3600E+00  0.6500E+00  0.9300E+00  0.1070E+01
  -0.2420E+01
  -0.2470E+01 -0.2510E+01 -0.2540E+01 -0.2580E+01 -0.2620E+01 -0.2660E+01 -0.2700E+01 -0.2740E+01 -0.2780E+01 -0.2820E+01
  -0.2860E+01 -0.2900E+01 -0.2950E+01 -0.2990E+01 -0.3040E+01 -0.3080E+01 -0.3130E+01 -0.3180E+01 -0.3230E+01 -0.3280E+01
  -0.3330E+01 -0.3380E+01 -0.3430E+01 -0.3480E+01 -0.3540E+01 -0.3590E+01 -0.3650E+01 -0.3700E+01 -0.3760E+01 -0.3820E+01
  -0.3880E+01 -0.3940E+01 -0.4000E+01 -0.4060E+01 -0.4120E+01 -0.4180E+01 -0.4240E+01 -0.4310E+01 -0.4370E+01 -0.4430E+01
  -0.4500E+01 -0.4560E+01 -0.4630E+01 -0.4690E+01 -0.4760E+01 -0.4830E+01 -0.4890E+01 -0.4960E+01 -0.5020E+01 -0.5090E+01
  -0.5150E+01 -0.5210E+01 -0.5280E+01 -0.5340E+01 -0.5400E+01 -0.5460E+01 -0.5520E+01 -0.5570E+01 -0.5630E+01 -0.5680E+01
  -0.5720E+01 -0.5770E+01 -0.5810E+01 -0.5850E+01 -0.5890E+01 -0.5920E+01 -0.5940E+01 -0.5960E+01 -0.5980E+01 -0.5990E+01
  -0.5990E+01 -0.5990E+01 -0.5980E+01 -0.5960E+01 -0.5940E+01 -0.5900E+01 -0.5860E+01 -0.5810E+01 -0.5750E+01 -0.5670E+01
  -0.5590E+01 -0.5500E+01 -0.5390E+01 -0.5270E+01 -0.5140E+01 -0.5000E+01 -0.4850E+01 -0.4680E+01 -0.4500E+01 -0.4310E+01
  -0.4110E+01 -0.3890E+01 -0.3670E+01 -0.3430E+01 -0.3180E+01 -0.2920E+01 -0.2650E+01 -0.2370E+01 -0.2080E+01 -0.1790E+01
  -0.1490E+01 -0.1180E+01 -0.8700E+00 -0.5500E+00 -0.2300E+00  0.8000E-01  0.4000E+00  0.7200E+00  0.1030E+01  0.1190E+01
  -0.2450E+01
  -0.2510E+01 -0.2540E+01 -0.2580E+01 -0.2620E+01 -0.2660E+01 -0.2700E+01 -0.2740E+01 -0.2780E+01 -0.2820E+01 -0.2870E+01
  -0.2910E+01 -0.2960E+01 -0.3000E+01 -0.3050E+01 -0.3100E+01 -0.3150E+01 -0.3200E+01 -0.3250E+01 -0.3300E+01 -0.3350E+01
  -0.3400E+01 -0.3460E+01 -0.3510E+01 -0.3570E+01 -0.3620E+01 -0.3680E+01 -0.3740E+01 -0.3800E+01 -0.3860E+01 -0.3920E+01
  -0.3980E+01 -0.4050E+01 -0.4110E+01 -0.4180E+01 -0.4240E+01 -0.4310E+01 -0.4380E+01 -0.4440E+01 -0.4510E+01 -0.4580E+01
  -0.4650E+01 -0.4720E+01 -0.4800E+01 -0.4870E+01 -0.4940E+01 -0.5010E+01 -0.5080E+01 -0.5160E+01 -0.5230E+01 -0.5300E+01
  -0.5370E+01 -0.5450E+01 -0.5520E+01 -0.5590E+01 -0.5660E+01 -0.5720E+01 -0.5790E+01 -0.5860E+01 -0.5920E+01 -0.5980E+01
  -0.6040E+01 -0.6090E+01 -0.6150E+01 -0.6200E+01 -0.6240E+01 -0.6280E+01 -0.6320E+01 -0.6350E+01 -0.6370E+01 -0.6390E+01
  -0.6410E+01 -0.6410E+01 -0.6410E+01 -0.6400E+01 -0.6380E+01 -0.6360E+01 -0.6320E+01 -0.6270E+01 -0.6210E+01 -0.6140E+01
  -0.6060E+01 -0.5970E+01 -0.5860E+01 -0.5750E+01 -0.5610E+01 -0.5470E+01 -0.5310E+01 -0.5130E+01 -0.4940E+01 -0.4740E+01
  -0.4520E+01 -0.4290E+01 -0.4040E+01 -0.3780E+01 -0.3510E+01 -0.3230E+01 -0.2930E+01 -0.2620E+01 -0.2310E+01 -0.1980E+01
  -0.1650E+01 -0.1310E+01 -0.9600E+00 -0.6100E+00 -0.2600E+00  0.9000E-01  0.4500E+00  0.8000E+00  0.1150E+01  0.1320E+01
  -0.2490E+01
  -0.2540E+01 -0.2580E+01 -0.2620E+01 -0.2660E+01 -0.2700E+01 -0.2740E+01 -0.2780E+01 -0.2830E+01 -0.2870E+01 -0.2920E+01
  -0.2960E+01 -0.3010E+01 -0.3060E+01 -0.3100E+01 -0.3150E+01 -0.3200E+01 -0.3260E+01 -0.3310E+01 -0.3360E+01 -0.3420E+01
  -0.3470E+01 -0.3530E+01 -0.3590E+01 -0.3650E+01 -0.3710E+01 -0.3770E+01 -0.3830E+01 -0.3890E+01 -0.3960E+01 -0.4020E+01
  -0.4090E+01 -0.4160E+01 -0.4220E+01 -0.4290E+01 -0.4360E+01 -0.4440E+01 -0.4510E+01 -0.4580E+01 -0.4660E+01 -0.4730E+01
  -0.4810E+01 -0.4880E+01 -0.4960E+01 -0.5040E+01 -0.5120E+01 -0.5200E+01 -0.5280E+01 -0.5360E+01 -0.5440E+01 -0.5520E+01
  -0.5600E+01 -0.5680E+01 -0.5760E+01 -0.5840E+01 -0.5920E+01 -0.6000E+01 -0.6070E+01 -0.6150E+01 -0.6220E+01 -0.6290E+01
  -0.6360E+01 -0.6430E+01 -0.6490E+01 -0.6550E+01 -0.6610E+01 -0.6660E+01 -0.6710E+01 -0.6750E+01 -0.6790E+01 -0.6820E+01
  -0.6850E+01 -0.6860E+01 -0.6870E+01 -0.6870E+01 -0.6860E+01 -0.6840E+01 -0.6810E+01 -0.6770E+01 -0.6720E+01 -0.6660E+01
  -0.6580E+01 -0.6490E+01 -0.6390E+01 -0.6270E+01 -0.6130E+01 -0.5980E+01 -0.5810E+01 -0.5630E+01 -0.5430E+01 -0.5210E+01
  -0.4980E+01 -0.4730E+01 -0.4470E+01 -0.4190E+01 -0.3890E+01 -0.3580E+01 -0.3250E+01 -0.2910E+01 -0.2560E+01 -0.2200E+01
  -0.1830E+01 -0.1460E+01 -0.1070E+01 -0.6800E+00 -0.2900E+00  0.1000E+00  0.5000E+00  0.8900E+00  0.1280E+01  0.1470E+01
  -0.2520E+01
  -0.2570E+01 -0.2610E+01 -0.2650E+01 -0.2690E+01 -0.2740E+01 -0.2780E+01 -0.2820E+01 -0.2870E+01 -0.2910E+01 -0.2960E+01
  -0.3010E+01 -0.3060E+01 -0.3110E+01 -0.3160E+01 -0.3210E+01 -0.3260E+01 -0.3320E+01 -0.3370E+01 -0.3430E+01 -0.3480E+01
  -0.3540E+01 -0.3600E+01 -0.3660E+01 -0.3720E+01 -0.3790E+01 -0.3850E+01 -0.3920E+01 -0.3980E+01 -0.4050E+01 -0.4120E+01
  -0.4190E+01 -0.4260E+01 -0.4340E+01 -0.4410E+01 -0.4480E+01 -0.4560E+01 -0.4640E+01 -0.4720E+01 -0.4800E+01 -0.4880E+01
  -0.4960E+01 -0.5040E+01 -0.5130E+01 -0.5210E+01 -0.5300E+01 -0.5390E+01 -0.5480E+01 -0.5560E+01 -0.5650E+01 -0.5740E+01
  -0.5830E+01 -0.5920E+01 -0.6010E+01 -0.6100E+01 -0.6190E+01 -0.6280E+01 -0.6360E+01 -0.6450E+01 -0.6540E+01 -0.6620E+01
  -0.6700E+01 -0.6780E+01 -0.6850E+01 -0.6930E+01 -0.7000E+01 -0.7060E+01 -0.7120E+01 -0.7180E+01 -0.7230E+01 -0.7270E+01
  -0.7310E+01 -0.7340E+01 -0.7360E+01 -0.7370E+01 -0.7370E+01 -0.7370E+01 -0.7350E+01 -0.7320E+01 -0.7270E+01 -0.7220E+01
  -0.7140E+01 -0.7060E+01 -0.6960E+01 -0.6840E+01 -0.6700E+01 -0.6550E+01 -0.6380E+01 -0.6190E+01 -0.5980E+01 -0.5750E+01
  -0.5500E+01 -0.5230E+01 -0.4950E+01 -0.4640E+01 -0.4320E+01 -0.3980E+01 -0.3620E+01 -0.3250E+01 -0.2860E+01 -0.2460E+01
  -0.2050E+01 -0.1630E+01 -0.1200E+01 -0.7600E+00 -0.3300E+00  0.1100E+00  0.5500E+00  0.9900E+00  0.1420E+01  0.1640E+01
  -0.2560E+01
  -0.2600E+01 -0.2640E+01 -0.2680E+01 -0.2730E+01 -0.2770E+01 -0.2820E+01 -0.2860E+01 -0.2910E+01 -0.2960E+01 -0.3000E+01
  -0.3050E+01 -0.3100E+01 -0.3150E+01 -0.3210E+01 -0.3260E+01 -0.3320E+01 -0.3370E+01 -0.3430E+01 -0.3490E+01 -0.3550E+01
  -0.3610E+01 -0.3670E+01 -0.3730E+01 -0.3800E+01 -0.3870E+01 -0.3930E+01 -0.4000E+01 -0.4070E+01 -0.4140E+01 -0.4220E+01
  -0.4290E+01 -0.4370E+01 -0.4440E+01 -0.4520E+01 -0.4600E+01 -0.4680E+01 -0.4770E+01 -0.4850E+01 -0.4940E+01 -0.5020E+01
  -0.5110E+01 -0.5200E+01 -0.5290E+01 -0.5390E+01 -0.5480E+01 -0.5570E+01 -0.5670E+01 -0.5770E+01 -0.5860E+01 -0.5960E+01
  -0.6060E+01 -0.6160E+01 -0.6260E+01 -0.6360E+01 -0.6460E+01 -0.6560E+01 -0.6660E+01 -0.6760E+01 -0.6850E+01 -0.6950E+01
  -0.7040E+01 -0.7130E+01 -0.7220E+01 -0.7310E+01 -0.7400E+01 -0.7470E+01 -0.7550E+01 -0.7620E+01 -0.7690E+01 -0.7740E+01
  -0.7800E+01 -0.7840E+01 -0.7880E+01 -0.7900E+01 -0.7920E+01 -0.7930E+01 -0.7920E+01 -0.7900E+01 -0.7870E+01 -0.7820E+01
  -0.7760E+01 -0.7680E+01 -0.7580E+01 -0.7470E+01 -0.7330E+01 -0.7180E+01 -0.7000E+01 -0.6810E+01 -0.6590E+01 -0.6350E+01
  -0.6080E+01 -0.5800E+01 -0.5490E+01 -0.5160E+01 -0.4800E+01 -0.4430E+01 -0.4040E+01 -0.3630E+01 -0.3200E+01 -0.2750E+01
  -0.2290E+01 -0.1820E+01 -0.1340E+01 -0.8600E+00 -0.3600E+00  0.1300E+00  0.6200E+00  0.1110E+01  0.1600E+01  0.1840E+01
  -0.2590E+01
  -0.2630E+01 -0.2670E+01 -0.2720E+01 -0.2760E+01 -0.2800E+01 -0.2850E+01 -0.2900E+01 -0.2940E+01 -0.2990E+01 -0.3040E+01
  -0.3090E+01 -0.3150E+01 -0.3200E+01 -0.3260E+01 -0.3310E+01 -0.3370E+01 -0.3430E+01 -0.3490E+01 -0.3550E+01 -0.3610E+01
  -0.3670E+01 -0.3740E+01 -0.3800E+01 -0.3870E+01 -0.3940E+01 -0.4010E+01 -0.4080E+01 -0.4160E+01 -0.4230E+01 -0.4310E+01
  -0.4390E+01 -0.4470E+01 -0.4550E+01 -0.4630E+01 -0.4720E+01 -0.4800E+01 -0.4890E+01 -0.4980E+01 -0.5070E+01 -0.5170E+01
  -0.5260E+01 -0.5360E+01 -0.5460E+01 -0.5550E+01 -0.5660E+01 -0.5760E+01 -0.5860E+01 -0.5970E+01 -0.6070E+01 -0.6180E+01
  -0.6290E+01 -0.6400E+01 -0.6510E+01 -0.6620E+01 -0.6730E+01 -0.6840E+01 -0.6950E+01 -0.7060E+01 -0.7170E+01 -0.7280E+01
  -0.7390E+01 -0.7500E+01 -0.7600E+01 -0.7710E+01 -0.7810E+01 -0.7900E+01 -0.7990E+01 -0.8080E+01 -0.8160E+01 -0.8240E+01
  -0.8310E+01 -0.8370E+01 -0.8420E+01 -0.8470E+01 -0.8500E+01 -0.8520E+01 -0.8530E+01 -0.8530E+01 -0.8510E+01 -0.8470E+01
  -0.8420E+01 -0.8350E+01 -0.8270E+01 -0.8160E+01 -0.8030E+01 -0.7870E+01 -0.7700E+01 -0.7500E+01 -0.7270E+01 -0.7020E+01
  -0.6740E+01 -0.6430E+01 -0.6100E+01 -0.5740E+01 -0.5360E+01 -0.4950E+01 -0.4520E+01 -0.4060E+01 -0.3590E+01 -0.3090E+01
  -0.2580E+01 -0.2050E+01 -0.1510E+01 -0.9600E+00 -0.4100E+00  0.1500E+00  0.7000E+00  0.1250E+01  0.1800E+01  0.2070E+01
  -0.2620E+01
  -0.2660E+01 -0.2700E+01 -0.2740E+01 -0.2790E+01 -0.2840E+01 -0.2880E+01 -0.2930E+01 -0.2980E+01 -0.3030E+01 -0.3080E+01
  -0.3130E+01 -0.3190E+01 -0.3240E+01 -0.3300E+01 -0.3360E+01 -0.3420E+01 -0.3480E+01 -0.3540E+01 -0.3600E+01 -0.3670E+01
  -0.3730E+01 -0.3800E+01 -0.3870E+01 -0.3940E+01 -0.4010E+01 -0.4080E+01 -0.4160E+01 -0.4240E+01 -0.4320E+01 -0.4400E+01
  -0.4480E+01 -0.4560E+01 -0.4650E+01 -0.4740E+01 -0.4830E+01 -0.4920E+01 -0.5010E+01 -0.5110E+01 -0.5200E+01 -0.5300E+01
  -0.5400E+01 -0.5510E+01 -0.5610E+01 -0.5720E+01 -0.5830E+01 -0.5940E+01 -0.6050E+01 -0.6160E+01 -0.6280E+01 -0.6400E+01
  -0.6520E+01 -0.6640E+01 -0.6760E+01 -0.6880E+01 -0.7000E+01 -0.7130E+01 -0.7250E+01 -0.7370E+01 -0.7500E+01 -0.7620E+01
  -0.7750E+01 -0.7870E+01 -0.7990E+01 -0.8110E+01 -0.8220E+01 -0.8340E+01 -0.8450E+01 -0.8550E+01 -0.8650E+01 -0.8750E+01
  -0.8840E+01 -0.8920E+01 -0.8990E+01 -0.9060E+01 -0.9110E+01 -0.9150E+01 -0.9180E+01 -0.9200E+01 -0.9200E+01 -0.9180E+01
  -0.9140E+01 -0.9090E+01 -0.9010E+01 -0.8910E+01 -0.8790E+01 -0.8640E+01 -0.8470E+01 -0.8270E+01 -0.8030E+01 -0.7770E+01
  -0.7480E+01 -0.7160E+01 -0.6800E+01 -0.6420E+01 -0.6000E+01 -0.5550E+01 -0.5070E+01 -0.4570E+01 -0.4040E+01 -0.3480E+01
  -0.2910E+01 -0.2320E+01 -0.1710E+01 -0.1090E+01 -0.4600E+00  0.1600E+00  0.7900E+00  0.1420E+01  0.2030E+01  0.2340E+01
  -0.2650E+01
  -0.2680E+01 -0.2730E+01 -0.2770E+01 -0.2820E+01 -0.2860E+01 -0.2910E+01 -0.2960E+01 -0.3010E+01 -0.3060E+01 -0.3120E+01
  -0.3170E+01 -0.3230E+01 -0.3280E+01 -0.3340E+01 -0.3400E+01 -0.3460E+01 -0.3520E+01 -0.3590E+01 -0.3650E+01 -0.3720E+01
  -0.3790E+01 -0.3860E+01 -0.3930E+01 -0.4000E+01 -0.4080E+01 -0.4150E+01 -0.4230E+01 -0.4310E+01 -0.4400E+01 -0.4480E+01
  -0.4570E+01 -0.4650E+01 -0.4740E+01 -0.4840E+01 -0.4930E+01 -0.5030E+01 -0.5130E+01 -0.5230E+01 -0.5330E+01 -0.5440E+01
  -0.5540E+01 -0.5650E+01 -0.5760E+01 -0.5880E+01 -0.6000E+01 -0.6110E+01 -0.6230E+01 -0.6360E+01 -0.6480E+01 -0.6610E+01
  -0.6740E+01 -0.6870E+01 -0.7000E+01 -0.7130E+01 -0.7270E+01 -0.7410E+01 -0.7540E+01 -0.7680E+01 -0.7820E+01 -0.7960E+01
  -0.8100E+01 -0.8240E+01 -0.8380E+01 -0.8510E+01 -0.8650E+01 -0.8780E+01 -0.8910E+01 -0.9040E+01 -0.9160E+01 -0.9280E+01
  -0.9390E+01 -0.9490E+01 -0.9590E+01 -0.9680E+01 -0.9750E+01 -0.9820E+01 -0.9870E+01 -0.9910E+01 -0.9930E+01 -0.9930E+01
  -0.9920E+01 -0.9880E+01 -0.9820E+01 -0.9740E+01 -0.9630E+01 -0.9490E+01 -0.9320E+01 -0.9120E+01 -0.8890E+01 -0.8620E+01
  -0.8320E+01 -0.7980E+01 -0.7600E+01 -0.7180E+01 -0.6730E+01 -0.6240E+01 -0.5720E+01 -0.5160E+01 -0.4560E+01 -0.3940E+01
  -0.3300E+01 -0.2630E+01 -0.1940E+01 -0.1240E+01 -0.5300E+00  0.1900E+00  0.9000E+00  0.1610E+01  0.2310E+01  0.2660E+01
  -0.2670E+01
  -0.2700E+01 -0.2750E+01 -0.2790E+01 -0.2840E+01 -0.2890E+01 -0.2940E+01 -0.2990E+01 -0.3040E+01 -0.3090E+01 -0.3150E+01
  -0.3200E+01 -0.3260E+01 -0.3320E+01 -0.3380E+01 -0.3440E+01 -0.3500E+01 -0.3570E+01 -0.3630E+01 -0.3700E+01 -0.3770E+01
  -0.3840E+01 -0.3910E+01 -0.3990E+01 -0.4060E+01 -0.4140E+01 -0.4220E+01 -0.4300E+01 -0.4380E+01 -0.4470E+01 -0.4560E+01
  -0.4650E+01 -0.4740E+01 -0.4830E+01 -0.4930E+01 -0.5030E+01 -0.5130E+01 -0.5240E+01 -0.5340E+01 -0.5450E+01 -0.5560E+01
  -0.5670E+01 -0.5790E+01 -0.5910E+01 -0.6030E+01 -0.6150E+01 -0.6280E+01 -0.6410E+01 -0.6540E+01 -0.6680E+01 -0.6810E+01
  -0.6950E+01 -0.7090E+01 -0.7240E+01 -0.7380E+01 -0.7530E+01 -0.7680E+01 -0.7830E+01 -0.7990E+01 -0.8140E+01 -0.8300E+01
  -0.8450E+01 -0.8610E+01 -0.8760E+01 -0.8920E+01 -0.9080E+01 -0.9230E+01 -0.9380E+01 -0.9530E+01 -0.9680E+01 -0.9820E+01
  -0.9950E+01 -0.1008E+02 -0.1020E+02 -0.1032E+02 -0.1042E+02 -0.1051E+02 -0.1059E+02 -0.1066E+02 -0.1071E+02 -0.1074E+02
  -0.1075E+02 -0.1074E+02 -0.1070E+02 -0.1064E+02 -0.1055E+02 -0.1042E+02 -0.1027E+02 -0.1008E+02 -0.9850E+01 -0.9580E+01
  -0.9260E+01 -0.8910E+01 -0.8510E+01 -0.8070E+01 -0.7580E+01 -0.7040E+01 -0.6460E+01 -0.5840E+01 -0.5180E+01 -0.4480E+01
  -0.3750E+01 -0.3000E+01 -0.2210E+01 -0.1410E+01 -0.6000E+00  0.2100E+00  0.1030E+01  0.1840E+01  0.2630E+01  0.3040E+01
  -0.2690E+01
  -0.2720E+01 -0.2770E+01 -0.2810E+01 -0.2860E+01 -0.2910E+01 -0.2960E+01 -0.3010E+01 -0.3070E+01 -0.3120E+01 -0.3180E+01
  -0.3230E+01 -0.3290E+01 -0.3350E+01 -0.3410E+01 -0.3480E+01 -0.3540E+01 -0.3610E+01 -0.3670E+01 -0.3740E+01 -0.3810E+01
  -0.3890E+01 -0.3960E+01 -0.4040E+01 -0.4120E+01 -0.4200E+01 -0.4280E+01 -0.4360E+01 -0.4450E+01 -0.4540E+01 -0.4630E+01
  -0.4720E+01 -0.4820E+01 -0.4920E+01 -0.5020E+01 -0.5120E+01 -0.5230E+01 -0.5340E+01 -0.5450E+01 -0.5560E+01 -0.5680E+01
  -0.5800E+01 -0.5920E+01 -0.6050E+01 -0.6170E+01 -0.6310E+01 -0.6440E+01 -0.6580E+01 -0.6720E+01 -0.6860E+01 -0.7010E+01
  -0.7160E+01 -0.7310E+01 -0.7460E+01 -0.7620E+01 -0.7780E+01 -0.7950E+01 -0.8110E+01 -0.8280E+01 -0.8450E+01 -0.8620E+01
  -0.8800E+01 -0.8970E+01 -0.9150E+01 -0.9320E+01 -0.9500E+01 -0.9670E+01 -0.9850E+01 -0.1002E+02 -0.1019E+02 -0.1036E+02
  -0.1052E+02 -0.1068E+02 -0.1083E+02 -0.1098E+02 -0.1111E+02 -0.1123E+02 -0.1135E+02 -0.1144E+02 -0.1152E+02 -0.1159E+02
  -0.1163E+02 -0.1165E+02 -0.1164E+02 -0.1161E+02 -0.1154E+02 -0.1145E+02 -0.1131E+02 -0.1113E+02 -0.1091E+02 -0.1065E+02
  -0.1033E+02 -0.9970E+01 -0.9550E+01 -0.9080E+01 -0.8550E+01 -0.7970E+01 -0.7340E+01 -0.6650E+01 -0.5910E+01 -0.5120E+01
  -0.4300E+01 -0.3430E+01 -0.2540E+01 -0.1620E+01 -0.6900E+00  0.2500E+00  0.1180E+01  0.2110E+01  0.3020E+01  0.3490E+01
  -0.2710E+01
  -0.2740E+01 -0.2780E+01 -0.2830E+01 -0.2880E+01 -0.2930E+01 -0.2980E+01 -0.3040E+01 -0.3090E+01 -0.3150E+01 -0.3200E+01
  -0.3260E+01 -0.3320E+01 -0.3380E+01 -0.3440E+01 -0.3510E+01 -0.3570E+01 -0.3640E+01 -0.3710E+01 -0.3780E+01 -0.3850E+01
  -0.3930E+01 -0.4000E+01 -0.4080E+01 -0.4160E+01 -0.4250E+01 -0.4330E+01 -0.4420E+01 -0.4510E+01 -0.4600E+01 -0.4700E+01
  -0.4790E+01 -0.4890E+01 -0.4990E+01 -0.5100E+01 -0.5210E+01 -0.5320E+01 -0.5430E+01 -0.5550E+01 -0.5660E+01 -0.5790E+01
  -0.5910E+01 -0.6040E+01 -0.6170E+01 -0.6310E+01 -0.6450E+01 -0.6590E+01 -0.6730E+01 -0.6880E+01 -0.7040E+01 -0.7190E+01
  -0.7350E+01 -0.7510E+01 -0.7680E+01 -0.7850E+01 -0.8020E+01 -0.8200E+01 -0.8380E+01 -0.8560E+01 -0.8750E+01 -0.8940E+01
  -0.9130E+01 -0.9320E+01 -0.9520E+01 -0.9710E+01 -0.9910E+01 -0.1011E+02 -0.1031E+02 -0.1051E+02 -0.1071E+02 -0.1090E+02
  -0.1109E+02 -0.1128E+02 -0.1147E+02 -0.1164E+02 -0.1181E+02 -0.1197E+02 -0.1212E+02 -0.1226E+02 -0.1238E+02 -0.1248E+02
  -0.1256E+02 -0.1262E+02 -0.1265E+02 -0.1265E+02 -0.1262E+02 -0.1256E+02 -0.1245E+02 -0.1230E+02 -0.1210E+02 -0.1185E+02
  -0.1154E+02 -0.1117E+02 -0.1074E+02 -0.1025E+02 -0.9690E+01 -0.9060E+01 -0.8360E+01 -0.7600E+01 -0.6780E+01 -0.5890E+01
  -0.4950E+01 -0.3960E+01 -0.2940E+01 -0.1880E+01 -0.8000E+00  0.2800E+00  0.1370E+01  0.2440E+01  0.3480E+01  0.4030E+01
  -0.2730E+01
  -0.2750E+01 -0.2800E+01 -0.2850E+01 -0.2900E+01 -0.2950E+01 -0.3000E+01 -0.3050E+01 -0.3110E+01 -0.3170E+01 -0.3220E+01
  -0.3280E+01 -0.3340E+01 -0.3410E+01 -0.3470E+01 -0.3530E+01 -0.3600E+01 -0.3670E+01 -0.3740E+01 -0.3810E+01 -0.3890E+01
  -0.3960E+01 -0.4040E+01 -0.4120E+01 -0.4210E+01 -0.4290E+01 -0.4380E+01 -0.4470E+01 -0.4560E+01 -0.4660E+01 -0.4750E+01
  -0.4850E+01 -0.4960E+01 -0.5060E+01 -0.5170E+01 -0.5280E+01 -0.5400E+01 -0.5510E+01 -0.5630E+01 -0.5760E+01 -0.5890E+01
  -0.6020E+01 -0.6150E+01 -0.6290E+01 -0.6430E+01 -0.6580E+01 -0.6720E+01 -0.6880E+01 -0.7040E+01 -0.7200E+01 -0.7360E+01
  -0.7530E+01 -0.7700E+01 -0.7880E+01 -0.8060E+01 -0.8250E+01 -0.8440E+01 -0.8630E+01 -0.8830E+01 -0.9030E+01 -0.9240E+01
  -0.9450E+01 -0.9660E+01 -0.9870E+01 -0.1009E+02 -0.1031E+02 -0.1053E+02 -0.1076E+02 -0.1098E+02 -0.1121E+02 -0.1143E+02
  -0.1166E+02 -0.1188E+02 -0.1210E+02 -0.1231E+02 -0.1252E+02 -0.1272E+02 -0.1291E+02 -0.1309E+02 -0.1325E+02 -0.1340E+02
  -0.1353E+02 -0.1363E+02 -0.1371E+02 -0.1376E+02 -0.1378E+02 -0.1375E+02 -0.1369E+02 -0.1357E+02 -0.1341E+02 -0.1318E+02
  -0.1290E+02 -0.1254E+02 -0.1211E+02 -0.1160E+02 -0.1101E+02 -0.1034E+02 -0.9580E+01 -0.8740E+01 -0.7810E+01 -0.6810E+01
  -0.5740E+01 -0.4600E+01 -0.3420E+01 -0.2190E+01 -0.9400E+00  0.3300E+00  0.1590E+01  0.2840E+01  0.4050E+01  0.4690E+01
  -0.2750E+01
  -0.2760E+01 -0.2810E+01 -0.2860E+01 -0.2910E+01 -0.2960E+01 -0.3010E+01 -0.3070E+01 -0.3120E+01 -0.3180E+01 -0.3240E+01
  -0.3300E+01 -0.3360E+01 -0.3430E+01 -0.3490E+01 -0.3560E+01 -0.3630E+01 -0.3700E+01 -0.3770E+01 -0.3840E+01 -0.3920E+01
  -0.4000E+01 -0.4080E+01 -0.4160E+01 -0.4240E+01 -0.4330E+01 -0.4420E+01 -0.4510E+01 -0.4610E+01 -0.4700E+01 -0.4800E+01
  -0.4910E+01 -0.5010E+01 -0.5120E+01 -0.5230E+01 -0.5350E+01 -0.5470E+01 -0.5590E+01 -0.5710E+01 -0.5840E+01 -0.5970E+01
  -0.6110E+01 -0.6250E+01 -0.6390E+01 -0.6540E+01 -0.6690E+01 -0.6850E+01 -0.7010E+01 -0.7170E+01 -0.7340E+01 -0.7520E+01
  -0.7690E+01 -0.7880E+01 -0.8060E+01 -0.8260E+01 -0.8450E+01 -0.8660E+01 -0.8860E+01 -0.9080E+01 -0.9290E+01 -0.9510E+01
  -0.9740E+01 -0.9970E+01 -0.1021E+02 -0.1045E+02 -0.1069E+02 -0.1094E+02 -0.1118E+02 -0.1144E+02 -0.1169E+02 -0.1195E+02
  -0.1220E+02 -0.1246E+02 -0.1271E+02 -0.1297E+02 -0.1321E+02 -0.1346E+02 -0.1369E+02 -0.1392E+02 -0.1413E+02 -0.1433E+02
  -0.1451E+02 -0.1468E+02 -0.1481E+02 -0.1492E+02 -0.1500E+02 -0.1503E+02 -0.1502E+02 -0.1496E+02 -0.1485E+02 -0.1466E+02
  -0.1441E+02 -0.1408E+02 -0.1366E+02 -0.1316E+02 -0.1255E+02 -0.1184E+02 -0.1102E+02 -0.1010E+02 -0.9070E+01 -0.7940E+01
  -0.6710E+01 -0.5400E+01 -0.4010E+01 -0.2580E+01 -0.1100E+01  0.3900E+00  0.1880E+01  0.3340E+01  0.4760E+01  0.5510E+01
  -0.2760E+01
  -0.2770E+01 -0.2820E+01 -0.2870E+01 -0.2920E+01 -0.2970E+01 -0.3030E+01 -0.3080E+01 -0.3140E+01 -0.3190E+01 -0.3250E+01
  -0.3310E+01 -0.3380E+01 -0.3440E+01 -0.3510E+01 -0.3580E+01 -0.3640E+01 -0.3720E+01 -0.3790E+01 -0.3860E+01 -0.3940E+01
  -0.4020E+01 -0.4100E+01 -0.4190E+01 -0.4270E+01 -0.4360E+01 -0.4450E+01 -0.4550E+01 -0.4640E+01 -0.4740E+01 -0.4850E+01
  -0.4950E+01 -0.5060E+01 -0.5170E+01 -0.5290E+01 -0.5400E+01 -0.5520E+01 -0.5650E+01 -0.5780E+01 -0.5910E+01 -0.6050E+01
  -0.6190E+01 -0.6330E+01 -0.6480E+01 -0.6630E+01 -0.6790E+01 -0.6950E+01 -0.7120E+01 -0.7290E+01 -0.7470E+01 -0.7650E+01
  -0.7840E+01 -0.8030E+01 -0.8230E+01 -0.8430E+01 -0.8640E+01 -0.8850E+01 -0.9070E+01 -0.9300E+01 -0.9530E+01 -0.9770E+01
  -0.1001E+02 -0.1026E+02 -0.1051E+02 -0.1077E+02 -0.1104E+02 -0.1131E+02 -0.1158E+02 -0.1186E+02 -0.1214E+02 -0.1243E+02
  -0.1272E+02 -0.1301E+02 -0.1330E+02 -0.1359E+02 -0.1389E+02 -0.1417E+02 -0.1446E+02 -0.1474E+02 -0.1501E+02 -0.1526E+02
  -0.1551E+02 -0.1573E+02 -0.1594E+02 -0.1612E+02 -0.1626E+02 -0.1637E+02 -0.1644E+02 -0.1645E+02 -0.1640E+02 -0.1629E+02
  -0.1609E+02 -0.1581E+02 -0.1543E+02 -0.1495E+02 -0.1434E+02 -0.1361E+02 -0.1275E+02 -0.1174E+02 -0.1060E+02 -0.9320E+01
  -0.7910E+01 -0.6390E+01 -0.4770E+01 -0.3070E+01 -0.1310E+01  0.4600E+00  0.2240E+01  0.3970E+01  0.5640E+01  0.6540E+01
  -0.2770E+01
  -0.2780E+01 -0.2820E+01 -0.2870E+01 -0.2930E+01 -0.2980E+01 -0.3030E+01 -0.3090E+01 -0.3150E+01 -0.3200E+01 -0.3260E+01
  -0.3330E+01 -0.3390E+01 -0.3450E+01 -0.3520E+01 -0.3590E+01 -0.3660E+01 -0.3730E+01 -0.3810E+01 -0.3880E+01 -0.3960E+01
  -0.4040E+01 -0.4120E+01 -0.4210E+01 -0.4300E+01 -0.4390E+01 -0.4480E+01 -0.4580E+01 -0.4670E+01 -0.4770E+01 -0.4880E+01
  -0.4990E+01 -0.5100E+01 -0.5210E+01 -0.5330E+01 -0.5450E+01 -0.5570E+01 -0.5700E+01 -0.5830E+01 -0.5970E+01 -0.6110E+01
  -0.6250E+01 -0.6400E+01 -0.6550E+01 -0.6710E+01 -0.6870E+01 -0.7040E+01 -0.7220E+01 -0.7390E+01 -0.7580E+01 -0.7770E+01
  -0.7960E+01 -0.8160E+01 -0.8370E+01 -0.8580E+01 -0.8800E+01 -0.9020E+01 -0.9250E+01 -0.9490E+01 -0.9740E+01 -0.9990E+01
  -0.1025E+02 -0.1051E+02 -0.1078E+02 -0.1106E+02 -0.1135E+02 -0.1164E+02 -0.1194E+02 -0.1224E+02 -0.1255E+02 -0.1287E+02
  -0.1319E+02 -0.1352E+02 -0.1385E+02 -0.1418E+02 -0.1451E+02 -0.1485E+02 -0.1519E+02 -0.1552E+02 -0.1585E+02 -0.1617E+02
  -0.1648E+02 -0.1678E+02 -0.1706E+02 -0.1732E+02 -0.1755E+02 -0.1775E+02 -0.1790E+02 -0.1801E+02 -0.1806E+02 -0.1804E+02
  -0.1793E+02 -0.1773E+02 -0.1743E+02 -0.1700E+02 -0.1642E+02 -0.1570E+02 -0.1481E+02 -0.1374E+02 -0.1249E+02 -0.1105E+02
  -0.9430E+01 -0.7650E+01 -0.5730E+01 -0.3700E+01 -0.1580E+01  0.5600E+00  0.2700E+01  0.4780E+01  0.6780E+01  0.7860E+01
  -0.2770E+01
  -0.2780E+01 -0.2830E+01 -0.2880E+01 -0.2930E+01 -0.2980E+01 -0.3040E+01 -0.3090E+01 -0.3150E+01 -0.3210E+01 -0.3270E+01
  -0.3330E+01 -0.3390E+01 -0.3460E+01 -0.3530E+01 -0.3600E+01 -0.3670E+01 -0.3740E+01 -0.3820E+01 -0.3890E+01 -0.3970E+01
  -0.4050E+01 -0.4140E+01 -0.4220E+01 -0.4310E+01 -0.4400E+01 -0.4500E+01 -0.4590E+01 -0.4690E+01 -0.4800E+01 -0.4900E+01
  -0.5010E+01 -0.5120E+01 -0.5240E+01 -0.5360E+01 -0.5480E+01 -0.5610E+01 -0.5740E+01 -0.5870E+01 -0.6010E+01 -0.6160E+01
  -0.6300E+01 -0.6460E+01 -0.6610E+01 -0.6770E+01 -0.6940E+01 -0.7110E+01 -0.7290E+01 -0.7470E+01 -0.7660E+01 -0.7860E+01
  -0.8060E+01 -0.8270E+01 -0.8480E+01 -0.8700E+01 -0.8930E+01 -0.9160E+01 -0.9400E+01 -0.9650E+01 -0.9910E+01 -0.1017E+02
  -0.1044E+02 -0.1072E+02 -0.1101E+02 -0.1131E+02 -0.1161E+02 -0.1192E+02 -0.1224E+02 -0.1257E+02 -0.1291E+02 -0.1325E+02
  -0.1361E+02 -0.1397E+02 -0.1433E+02 -0.1470E+02 -0.1508E+02 -0.1546E+02 -0.1585E+02 -0.1624E+02 -0.1663E+02 -0.1701E+02
  -0.1740E+02 -0.1777E+02 -0.1813E+02 -0.1848E+02 -0.1881E+02 -0.1911E+02 -0.1938E+02 -0.1960E+02 -0.1977E+02 -0.1988E+02
  -0.1990E+02 -0.1982E+02 -0.1963E+02 -0.1930E+02 -0.1882E+02 -0.1815E+02 -0.1727E+02 -0.1617E+02 -0.1483E+02 -0.1323E+02
  -0.1138E+02 -0.9290E+01 -0.7000E+01 -0.4530E+01 -0.1950E+01  0.6900E+00  0.3310E+01  0.5850E+01  0.8260E+01  0.9600E+01
  -0.2780E+01
  -0.2780E+01 -0.2830E+01 -0.2880E+01 -0.2930E+01 -0.2980E+01 -0.3040E+01 -0.3090E+01 -0.3150E+01 -0.3210E+01 -0.3270E+01
  -0.3330E+01 -0.3400E+01 -0.3460E+01 -0.3530E+01 -0.3600E+01 -0.3670E+01 -0.3740E+01 -0.3820E+01 -0.3900E+01 -0.3980E+01
  -0.4060E+01 -0.4140E+01 -0.4230E+01 -0.4320E+01 -0.4410E+01 -0.4510E+01 -0.4610E+01 -0.4710E+01 -0.4810E+01 -0.4920E+01
  -0.5030E+01 -0.5140E+01 -0.5260E+01 -0.5380E+01 -0.5500E+01 -0.5630E+01 -0.5760E+01 -0.5900E+01 -0.6040E+01 -0.6190E+01
  -0.6340E+01 -0.6490E+01 -0.6650E+01 -0.6820E+01 -0.6990E+01 -0.7160E+01 -0.7340E+01 -0.7530E+01 -0.7730E+01 -0.7930E+01
  -0.8130E+01 -0.8340E+01 -0.8560E+01 -0.8790E+01 -0.9030E+01 -0.9270E+01 -0.9520E+01 -0.9780E+01 -0.1004E+02 -0.1032E+02
  -0.1060E+02 -0.1089E+02 -0.1119E+02 -0.1150E+02 -0.1182E+02 -0.1215E+02 -0.1249E+02 -0.1284E+02 -0.1320E+02 -0.1357E+02
  -0.1395E+02 -0.1434E+02 -0.1474E+02 -0.1515E+02 -0.1557E+02 -0.1599E+02 -0.1643E+02 -0.1687E+02 -0.1731E+02 -0.1776E+02
  -0.1822E+02 -0.1867E+02 -0.1912E+02 -0.1956E+02 -0.2000E+02 -0.2041E+02 -0.2080E+02 -0.2116E+02 -0.2148E+02 -0.2174E+02
  -0.2193E+02 -0.2202E+02 -0.2200E+02 -0.2184E+02 -0.2151E+02 -0.2098E+02 -0.2019E+02 -0.1913E+02 -0.1774E+02 -0.1601E+02
  -0.1392E+02 -0.1147E+02 -0.8700E+01 -0.5670E+01 -0.2440E+01  0.8700E+00  0.4150E+01  0.7310E+01  0.1024E+02  0.1193E+02
  -0.2780E+01
  -0.2770E+01 -0.2820E+01 -0.2870E+01 -0.2920E+01 -0.2980E+01 -0.3030E+01 -0.3090E+01 -0.3150E+01 -0.3210E+01 -0.3270E+01
  -0.3330E+01 -0.3390E+01 -0.3460E+01 -0.3530E+01 -0.3600E+01 -0.3670E+01 -0.3740E+01 -0.3820E+01 -0.3900E+01 -0.3980E+01
  -0.4060E+01 -0.4140E+01 -0.4230E+01 -0.4320E+01 -0.4410E+01 -0.4510E+01 -0.4610E+01 -0.4710E+01 -0.4810E+01 -0.4920E+01
  -0.5030E+01 -0.5150E+01 -0.5270E+01 -0.5390E+01 -0.5510E+01 -0.5640E+01 -0.5780E+01 -0.5910E+01 -0.6060E+01 -0.6200E+01
  -0.6360E+01 -0.6510E+01 -0.6670E+01 -0.6840E+01 -0.7010E+01 -0.7190E+01 -0.7380E+01 -0.7570E+01 -0.7760E+01 -0.7970E+01
  -0.8180E+01 -0.8400E+01 -0.8620E+01 -0.8850E+01 -0.9090E+01 -0.9340E+01 -0.9600E+01 -0.9860E+01 -0.1013E+02 -0.1042E+02
  -0.1071E+02 -0.1101E+02 -0.1132E+02 -0.1165E+02 -0.1198E+02 -0.1232E+02 -0.1268E+02 -0.1305E+02 -0.1342E+02 -0.1381E+02
  -0.1422E+02 -0.1463E+02 -0.1506E+02 -0.1550E+02 -0.1595E+02 -0.1641E+02 -0.1689E+02 -0.1738E+02 -0.1788E+02 -0.1839E+02
  -0.1890E+02 -0.1943E+02 -0.1996E+02 -0.2050E+02 -0.2104E+02 -0.2157E+02 -0.2209E+02 -0.2260E+02 -0.2308E+02 -0.2352E+02
  -0.2390E+02 -0.2422E+02 -0.2443E+02 -0.2452E+02 -0.2444E+02 -0.2414E+02 -0.2357E+02 -0.2267E+02 -0.2136E+02 -0.1958E+02
  -0.1728E+02 -0.1444E+02 -0.1108E+02 -0.7270E+01 -0.3150E+01  0.1120E+01  0.5350E+01  0.9350E+01  0.1298E+02  0.1516E+02
  -0.2780E+01
  -0.2770E+01 -0.2820E+01 -0.2870E+01 -0.2920E+01 -0.2970E+01 -0.3030E+01 -0.3080E+01 -0.3140E+01 -0.3200E+01 -0.3260E+01
  -0.3320E+01 -0.3390E+01 -0.3450E+01 -0.3520E+01 -0.3590E+01 -0.3660E+01 -0.3740E+01 -0.3810E+01 -0.3890E+01 -0.3970E+01
  -0.4050E+01 -0.4140E+01 -0.4230E+01 -0.4320E+01 -0.4410E+01 -0.4500E+01 -0.4600E+01 -0.4700E+01 -0.4810E+01 -0.4920E+01
  -0.5030E+01 -0.5140E+01 -0.5260E+01 -0.5380E+01 -0.5510E+01 -0.5640E+01 -0.5780E+01 -0.5910E+01 -0.6060E+01 -0.6210E+01
  -0.6360E+01 -0.6520E+01 -0.6680E+01 -0.6850E+01 -0.7020E+01 -0.7200E+01 -0.7390E+01 -0.7580E+01 -0.7780E+01 -0.7980E+01
  -0.8200E+01 -0.8420E+01 -0.8640E+01 -0.8880E+01 -0.9120E+01 -0.9370E+01 -0.9630E+01 -0.9900E+01 -0.1018E+02 -0.1047E+02
  -0.1077E+02 -0.1108E+02 -0.1140E+02 -0.1173E+02 -0.1207E+02 -0.1242E+02 -0.1279E+02 -0.1317E+02 -0.1356E+02 -0.1397E+02
  -0.1439E+02 -0.1482E+02 -0.1527E+02 -0.1573E+02 -0.1621E+02 -0.1670E+02 -0.1721E+02 -0.1774E+02 -0.1828E+02 -0.1884E+02
  -0.1941E+02 -0.2000E+02 -0.2061E+02 -0.2123E+02 -0.2186E+02 -0.2250E+02 -0.2314E+02 -0.2379E+02 -0.2444E+02 -0.2506E+02
  -0.2567E+02 -0.2623E+02 -0.2673E+02 -0.2713E+02 -0.2739E+02 -0.2747E+02 -0.2728E+02 -0.2674E+02 -0.2572E+02 -0.2411E+02
  -0.2176E+02 -0.1857E+02 -0.1451E+02 -0.9650E+01 -0.4220E+01  0.1500E+01  0.7130E+01  0.1234E+02  0.1686E+02  0.1973E+02
  -0.2770E+01
  -0.2760E+01 -0.2800E+01 -0.2860E+01 -0.2910E+01 -0.2960E+01 -0.3010E+01 -0.3070E+01 -0.3130E+01 -0.3190E+01 -0.3250E+01
  -0.3310E+01 -0.3370E+01 -0.3440E+01 -0.3510E+01 -0.3580E+01 -0.3650E+01 -0.3720E+01 -0.3800E+01 -0.3880E+01 -0.3960E+01
  -0.4040E+01 -0.4120E+01 -0.4210E+01 -0.4300E+01 -0.4390E+01 -0.4490E+01 -0.4590E+01 -0.4690E+01 -0.4790E+01 -0.4900E+01
  -0.5010E+01 -0.5130E+01 -0.5250E+01 -0.5370E+01 -0.5500E+01 -0.5630E+01 -0.5760E+01 -0.5900E+01 -0.6040E+01 -0.6190E+01
  -0.6340E+01 -0.6500E+01 -0.6660E+01 -0.6830E+01 -0.7010E+01 -0.7190E+01 -0.7370E+01 -0.7570E+01 -0.7770E+01 -0.7970E+01
  -0.8190E+01 -0.8410E+01 -0.8640E+01 -0.8870E+01 -0.9120E+01 -0.9370E+01 -0.9630E+01 -0.9900E+01 -0.1018E+02 -0.1048E+02
  -0.1078E+02 -0.1109E+02 -0.1141E+02 -0.1175E+02 -0.1209E+02 -0.1245E+02 -0.1283E+02 -0.1321E+02 -0.1361E+02 -0.1402E+02
  -0.1445E+02 -0.1490E+02 -0.1536E+02 -0.1584E+02 -0.1633E+02 -0.1685E+02 -0.1738E+02 -0.1793E+02 -0.1850E+02 -0.1909E+02
  -0.1971E+02 -0.2034E+02 -0.2100E+02 -0.2168E+02 -0.2238E+02 -0.2311E+02 -0.2385E+02 -0.2462E+02 -0.2540E+02 -0.2620E+02
  -0.2700E+02 -0.2780E+02 -0.2858E+02 -0.2932E+02 -0.2999E+02 -0.3054E+02 -0.3090E+02 -0.3096E+02 -0.3057E+02 -0.2953E+02
  -0.2755E+02 -0.2433E+02 -0.1961E+02 -0.1337E+02 -0.5920E+01  0.2110E+01  0.9970E+01  0.1693E+02  0.2250E+02  0.2615E+02
  -0.2760E+01
  -0.2740E+01 -0.2790E+01 -0.2840E+01 -0.2890E+01 -0.2950E+01 -0.3000E+01 -0.3060E+01 -0.3110E+01 -0.3170E+01 -0.3230E+01
  -0.3290E+01 -0.3360E+01 -0.3420E+01 -0.3490E+01 -0.3560E+01 -0.3630E+01 -0.3700E+01 -0.3780E+01 -0.3860E+01 -0.3940E+01
  -0.4020E+01 -0.4100E+01 -0.4190E+01 -0.4280E+01 -0.4370E+01 -0.4470E+01 -0.4570E+01 -0.4670E+01 -0.4770E+01 -0.4880E+01
  -0.4990E+01 -0.5100E+01 -0.5220E+01 -0.5340E+01 -0.5470E+01 -0.5600E+01 -0.5730E+01 -0.5870E+01 -0.6010E+01 -0.6160E+01
  -0.6310E+01 -0.6470E+01 -0.6630E+01 -0.6800E+01 -0.6970E+01 -0.7150E+01 -0.7340E+01 -0.7530E+01 -0.7730E+01 -0.7930E+01
  -0.8150E+01 -0.8370E+01 -0.8590E+01 -0.8830E+01 -0.9070E+01 -0.9330E+01 -0.9590E+01 -0.9860E+01 -0.1014E+02 -0.1043E+02
  -0.1073E+02 -0.1104E+02 -0.1137E+02 -0.1170E+02 -0.1205E+02 -0.1241E+02 -0.1278E+02 -0.1317E+02 -0.1357E+02 -0.1398E+02
  -0.1441E+02 -0.1486E+02 -0.1533E+02 -0.1581E+02 -0.1631E+02 -0.1683E+02 -0.1737E+02 -0.1793E+02 -0.1851E+02 -0.1912E+02
  -0.1975E+02 -0.2041E+02 -0.2109E+02 -0.2181E+02 -0.2255E+02 -0.2332E+02 -0.2412E+02 -0.2496E+02 -0.2583E+02 -0.2674E+02
  -0.2768E+02 -0.2865E+02 -0.2965E+02 -0.3066E+02 -0.3168E+02 -0.3267E+02 -0.3359E+02 -0.3437E+02 -0.3487E+02 -0.3489E+02
  -0.3403E+02 -0.3171E+02 -0.2707E+02 -0.1939E+02 -0.8850E+01  0.3180E+01  0.1474E+02  0.2405E+02  0.3026E+02  0.3401E+02
  -0.2750E+01
  -0.2730E+01 -0.2780E+01 -0.2830E+01 -0.2880E+01 -0.2930E+01 -0.2980E+01 -0.3040E+01 -0.3090E+01 -0.3150E+01 -0.3210E+01
  -0.3270E+01 -0.3340E+01 -0.3400E+01 -0.3470E+01 -0.3540E+01 -0.3610E+01 -0.3680E+01 -0.3760E+01 -0.3830E+01 -0.3910E+01
  -0.3990E+01 -0.4080E+01 -0.4160E+01 -0.4250E+01 -0.4340E+01 -0.4440E+01 -0.4530E+01 -0.4630E+01 -0.4740E+01 -0.4840E+01
  -0.4950E+01 -0.5070E+01 -0.5180E+01 -0.5300E+01 -0.5430E+01 -0.5560E+01 -0.5690E+01 -0.5830E+01 -0.5970E+01 -0.6110E+01
  -0.6260E+01 -0.6420E+01 -0.6580E+01 -0.6750E+01 -0.6920E+01 -0.7090E+01 -0.7280E+01 -0.7470E+01 -0.7660E+01 -0.7870E+01
  -0.8080E+01 -0.8300E+01 -0.8520E+01 -0.8750E+01 -0.8990E+01 -0.9240E+01 -0.9500E+01 -0.9770E+01 -0.1005E+02 -0.1033E+02
  -0.1063E+02 -0.1094E+02 -0.1126E+02 -0.1159E+02 -0.1193E+02 -0.1229E+02 -0.1265E+02 -0.1304E+02 -0.1343E+02 -0.1384E+02
  -0.1427E+02 -0.1471E+02 -0.1517E+02 -0.1564E+02 -0.1614E+02 -0.1665E+02 -0.1719E+02 -0.1774E+02 -0.1832E+02 -0.1892E+02
  -0.1954E+02 -0.2019E+02 -0.2087E+02 -0.2158E+02 -0.2232E+02 -0.2309E+02 -0.2390E+02 -0.2475E+02 -0.2563E+02 -0.2656E+02
  -0.2754E+02 -0.2855E+02 -0.2962E+02 -0.3074E+02 -0.3189E+02 -0.3309E+02 -0.3430E+02 -0.3549E+02 -0.3660E+02 -0.3748E+02
  -0.3787E+02 -0.3716E+02 -0.3410E+02 -0.2637E+02 -0.1331E+02  0.5190E+01  0.2091E+02  0.3173E+02  0.3691E+02  0.3890E+02
  -0.2740E+01
  -0.2710E+01 -0.2760E+01 -0.2810E+01 -0.2860E+01 -0.2910E+01 -0.2960E+01 -0.3020E+01 -0.3070E+01 -0.3130E+01 -0.3190E+01
  -0.3250E+01 -0.3310E+01 -0.3380E+01 -0.3440E+01 -0.3510E+01 -0.3580E+01 -0.3650E+01 -0.3730E+01 -0.3800E+01 -0.3880E+01
  -0.3960E+01 -0.4040E+01 -0.4130E+01 -0.4220E+01 -0.4310E+01 -0.4400E+01 -0.4490E+01 -0.4590E+01 -0.4690E+01 -0.4800E+01
  -0.4910E+01 -0.5020E+01 -0.5130E+01 -0.5250E+01 -0.5380E+01 -0.5500E+01 -0.5630E+01 -0.5770E+01 -0.5910E+01 -0.6050E+01
  -0.6200E+01 -0.6350E+01 -0.6510E+01 -0.6670E+01 -0.6840E+01 -0.7020E+01 -0.7200E+01 -0.7380E+01 -0.7580E+01 -0.7780E+01
  -0.7980E+01 -0.8200E+01 -0.8420E+01 -0.8640E+01 -0.8880E+01 -0.9130E+01 -0.9380E+01 -0.9640E+01 -0.9910E+01 -0.1019E+02
  -0.1048E+02 -0.1078E+02 -0.1109E+02 -0.1142E+02 -0.1175E+02 -0.1209E+02 -0.1245E+02 -0.1282E+02 -0.1321E+02 -0.1360E+02
  -0.1402E+02 -0.1444E+02 -0.1489E+02 -0.1535E+02 -0.1582E+02 -0.1632E+02 -0.1683E+02 -0.1736E+02 -0.1791E+02 -0.1849E+02
  -0.1908E+02 -0.1970E+02 -0.2034E+02 -0.2101E+02 -0.2171E+02 -0.2243E+02 -0.2319E+02 -0.2398E+02 -0.2479E+02 -0.2565E+02
  -0.2654E+02 -0.2746E+02 -0.2841E+02 -0.2940E+02 -0.3041E+02 -0.3144E+02 -0.3245E+02 -0.3341E+02 -0.3424E+02 -0.3480E+02
  -0.3480E+02 -0.3365E+02 -0.3002E+02 -0.2096E+02 -0.4680E+01  0.4000E+00  0.1408E+02  0.2759E+02  0.3346E+02  0.3563E+02
  -0.2720E+01
  -0.2690E+01 -0.2730E+01 -0.2780E+01 -0.2830E+01 -0.2880E+01 -0.2940E+01 -0.2990E+01 -0.3050E+01 -0.3100E+01 -0.3160E+01
  -0.3220E+01 -0.3280E+01 -0.3350E+01 -0.3410E+01 -0.3480E+01 -0.3550E+01 -0.3620E+01 -0.3690E+01 -0.3760E+01 -0.3840E+01
  -0.3920E+01 -0.4000E+01 -0.4090E+01 -0.4170E+01 -0.4260E+01 -0.4350E+01 -0.4450E+01 -0.4540E+01 -0.4640E+01 -0.4750E+01
  -0.4850E+01 -0.4960E+01 -0.5080E+01 -0.5190E+01 -0.5310E+01 -0.5440E+01 -0.5560E+01 -0.5700E+01 -0.5830E+01 -0.5970E+01
  -0.6120E+01 -0.6270E+01 -0.6420E+01 -0.6580E+01 -0.6750E+01 -0.6920E+01 -0.7090E+01 -0.7280E+01 -0.7460E+01 -0.7660E+01
  -0.7860E+01 -0.8070E+01 -0.8280E+01 -0.8500E+01 -0.8730E+01 -0.8970E+01 -0.9220E+01 -0.9470E+01 -0.9730E+01 -0.1000E+02
  -0.1028E+02 -0.1057E+02 -0.1087E+02 -0.1118E+02 -0.1150E+02 -0.1183E+02 -0.1218E+02 -0.1253E+02 -0.1290E+02 -0.1328E+02
  -0.1367E+02 -0.1407E+02 -0.1449E+02 -0.1492E+02 -0.1537E+02 -0.1584E+02 -0.1631E+02 -0.1681E+02 -0.1732E+02 -0.1785E+02
  -0.1839E+02 -0.1895E+02 -0.1953E+02 -0.2013E+02 -0.2075E+02 -0.2139E+02 -0.2204E+02 -0.2271E+02 -0.2339E+02 -0.2409E+02
  -0.2480E+02 -0.2550E+02 -0.2621E+02 -0.2689E+02 -0.2753E+02 -0.2810E+02 -0.2855E+02 -0.2880E+02 -0.2875E+02 -0.2818E+02
  -0.2682E+02 -0.2417E+02 -0.1964E+02 -0.1301E+02 -0.5450E+01  0.1940E+01  0.9710E+01  0.1739E+02  0.2320E+02  0.2709E+02
  -0.2700E+01
  -0.2660E+01 -0.2710E+01 -0.2760E+01 -0.2810E+01 -0.2860E+01 -0.2910E+01 -0.2960E+01 -0.3020E+01 -0.3070E+01 -0.3130E+01
  -0.3190E+01 -0.3250E+01 -0.3310E+01 -0.3380E+01 -0.3440E+01 -0.3510E+01 -0.3580E+01 -0.3650E+01 -0.3720E+01 -0.3800E+01
  -0.3880E+01 -0.3960E+01 -0.4040E+01 -0.4120E+01 -0.4210E+01 -0.4300E+01 -0.4390E+01 -0.4490E+01 -0.4580E+01 -0.4690E+01
  -0.4790E+01 -0.4900E+01 -0.5010E+01 -0.5120E+01 -0.5240E+01 -0.5360E+01 -0.5480E+01 -0.5610E+01 -0.5750E+01 -0.5880E+01
  -0.6020E+01 -0.6170E+01 -0.6320E+01 -0.6480E+01 -0.6640E+01 -0.6800E+01 -0.6970E+01 -0.7150E+01 -0.7330E+01 -0.7520E+01
  -0.7710E+01 -0.7910E+01 -0.8120E+01 -0.8330E+01 -0.8550E+01 -0.8780E+01 -0.9020E+01 -0.9260E+01 -0.9510E+01 -0.9770E+01
  -0.1004E+02 -0.1032E+02 -0.1060E+02 -0.1090E+02 -0.1120E+02 -0.1151E+02 -0.1184E+02 -0.1217E+02 -0.1251E+02 -0.1287E+02
  -0.1323E+02 -0.1361E+02 -0.1400E+02 -0.1440E+02 -0.1481E+02 -0.1523E+02 -0.1566E+02 -0.1611E+02 -0.1656E+02 -0.1703E+02
  -0.1751E+02 -0.1800E+02 -0.1850E+02 -0.1900E+02 -0.1952E+02 -0.2004E+02 -0.2056E+02 -0.2107E+02 -0.2158E+02 -0.2208E+02
  -0.2255E+02 -0.2299E+02 -0.2338E+02 -0.2369E+02 -0.2390E+02 -0.2396E+02 -0.2380E+02 -0.2336E+02 -0.2253E+02 -0.2115E+02
  -0.1908E+02 -0.1617E+02 -0.1240E+02 -0.8010E+01 -0.3400E+01  0.1210E+01  0.5940E+01  0.1070E+02  0.1503E+02  0.1854E+02
  -0.2670E+01
  -0.2640E+01 -0.2680E+01 -0.2730E+01 -0.2780E+01 -0.2830E+01 -0.2880E+01 -0.2930E+01 -0.2980E+01 -0.3040E+01 -0.3090E+01
  -0.3150E+01 -0.3210E+01 -0.3270E+01 -0.3340E+01 -0.3400E+01 -0.3470E+01 -0.3530E+01 -0.3600E+01 -0.3680E+01 -0.3750E+01
  -0.3830E+01 -0.3900E+01 -0.3980E+01 -0.4070E+01 -0.4150E+01 -0.4240E+01 -0.4330E+01 -0.4420E+01 -0.4520E+01 -0.4620E+01
  -0.4720E+01 -0.4820E+01 -0.4930E+01 -0.5040E+01 -0.5150E+01 -0.5270E+01 -0.5390E+01 -0.5520E+01 -0.5650E+01 -0.5780E+01
  -0.5920E+01 -0.6060E+01 -0.6200E+01 -0.6350E+01 -0.6510E+01 -0.6670E+01 -0.6830E+01 -0.7000E+01 -0.7180E+01 -0.7360E+01
  -0.7540E+01 -0.7730E+01 -0.7930E+01 -0.8140E+01 -0.8350E+01 -0.8570E+01 -0.8790E+01 -0.9020E+01 -0.9260E+01 -0.9500E+01
  -0.9760E+01 -0.1002E+02 -0.1028E+02 -0.1056E+02 -0.1085E+02 -0.1114E+02 -0.1144E+02 -0.1175E+02 -0.1206E+02 -0.1239E+02
  -0.1272E+02 -0.1307E+02 -0.1342E+02 -0.1378E+02 -0.1415E+02 -0.1452E+02 -0.1490E+02 -0.1529E+02 -0.1569E+02 -0.1608E+02
  -0.1649E+02 -0.1689E+02 -0.1730E+02 -0.1770E+02 -0.1810E+02 -0.1849E+02 -0.1887E+02 -0.1922E+02 -0.1955E+02 -0.1984E+02
  -0.2009E+02 -0.2026E+02 -0.2036E+02 -0.2034E+02 -0.2019E+02 -0.1986E+02 -0.1930E+02 -0.1846E+02 -0.1728E+02 -0.1570E+02
  -0.1369E+02 -0.1126E+02 -0.8470E+01 -0.5450E+01 -0.2340E+01  0.8300E+00  0.4040E+01  0.7240E+01  0.1030E+02  0.1272E+02
  -0.2650E+01
  -0.2610E+01 -0.2650E+01 -0.2700E+01 -0.2740E+01 -0.2790E+01 -0.2840E+01 -0.2890E+01 -0.2950E+01 -0.3000E+01 -0.3060E+01
  -0.3110E+01 -0.3170E+01 -0.3230E+01 -0.3290E+01 -0.3350E+01 -0.3420E+01 -0.3490E+01 -0.3550E+01 -0.3620E+01 -0.3700E+01
  -0.3770E+01 -0.3850E+01 -0.3920E+01 -0.4010E+01 -0.4090E+01 -0.4170E+01 -0.4260E+01 -0.4350E+01 -0.4440E+01 -0.4540E+01
  -0.4640E+01 -0.4740E+01 -0.4840E+01 -0.4950E+01 -0.5060E+01 -0.5170E+01 -0.5290E+01 -0.5410E+01 -0.5540E+01 -0.5660E+01
  -0.5790E+01 -0.5930E+01 -0.6070E+01 -0.6210E+01 -0.6360E+01 -0.6520E+01 -0.6670E+01 -0.6840E+01 -0.7000E+01 -0.7170E+01
  -0.7350E+01 -0.7530E+01 -0.7720E+01 -0.7920E+01 -0.8120E+01 -0.8320E+01 -0.8530E+01 -0.8750E+01 -0.8970E+01 -0.9200E+01
  -0.9440E+01 -0.9680E+01 -0.9930E+01 -0.1019E+02 -0.1045E+02 -0.1072E+02 -0.1099E+02 -0.1128E+02 -0.1156E+02 -0.1186E+02
  -0.1216E+02 -0.1246E+02 -0.1278E+02 -0.1309E+02 -0.1341E+02 -0.1374E+02 -0.1406E+02 -0.1439E+02 -0.1472E+02 -0.1505E+02
  -0.1537E+02 -0.1569E+02 -0.1600E+02 -0.1631E+02 -0.1659E+02 -0.1685E+02 -0.1709E+02 -0.1730E+02 -0.1746E+02 -0.1758E+02
  -0.1763E+02 -0.1759E+02 -0.1747E+02 -0.1722E+02 -0.1684E+02 -0.1629E+02 -0.1554E+02 -0.1457E+02 -0.1336E+02 -0.1190E+02
  -0.1019E+02 -0.8270E+01 -0.6180E+01 -0.3970E+01 -0.1700E+01  0.6000E+00  0.2930E+01  0.5240E+01  0.7490E+01  0.9140E+01
  -0.2620E+01
  -0.2570E+01 -0.2620E+01 -0.2660E+01 -0.2710E+01 -0.2760E+01 -0.2810E+01 -0.2860E+01 -0.2910E+01 -0.2960E+01 -0.3010E+01
  -0.3070E+01 -0.3130E+01 -0.3180E+01 -0.3240E+01 -0.3310E+01 -0.3370E+01 -0.3430E+01 -0.3500E+01 -0.3570E+01 -0.3640E+01
  -0.3710E+01 -0.3780E+01 -0.3860E+01 -0.3940E+01 -0.4020E+01 -0.4100E+01 -0.4190E+01 -0.4270E+01 -0.4360E+01 -0.4450E+01
  -0.4550E+01 -0.4650E+01 -0.4750E+01 -0.4850E+01 -0.4960E+01 -0.5070E+01 -0.5180E+01 -0.5290E+01 -0.5410E+01 -0.5540E+01
  -0.5660E+01 -0.5790E+01 -0.5930E+01 -0.6060E+01 -0.6210E+01 -0.6350E+01 -0.6500E+01 -0.6660E+01 -0.6810E+01 -0.6980E+01
  -0.7140E+01 -0.7320E+01 -0.7490E+01 -0.7680E+01 -0.7860E+01 -0.8060E+01 -0.8250E+01 -0.8460E+01 -0.8660E+01 -0.8880E+01
  -0.9090E+01 -0.9320E+01 -0.9550E+01 -0.9780E+01 -0.1002E+02 -0.1026E+02 -0.1051E+02 -0.1077E+02 -0.1102E+02 -0.1128E+02
  -0.1155E+02 -0.1182E+02 -0.1209E+02 -0.1236E+02 -0.1263E+02 -0.1291E+02 -0.1318E+02 -0.1345E+02 -0.1371E+02 -0.1397E+02
  -0.1422E+02 -0.1446E+02 -0.1468E+02 -0.1488E+02 -0.1507E+02 -0.1522E+02 -0.1534E+02 -0.1542E+02 -0.1545E+02 -0.1542E+02
  -0.1533E+02 -0.1515E+02 -0.1488E+02 -0.1451E+02 -0.1401E+02 -0.1337E+02 -0.1258E+02 -0.1164E+02 -0.1053E+02 -0.9270E+01
  -0.7860E+01 -0.6330E+01 -0.4710E+01 -0.3020E+01 -0.1300E+01  0.4600E+00  0.2230E+01  0.3980E+01  0.5700E+01  0.6870E+01
  -0.2590E+01
  -0.2540E+01 -0.2580E+01 -0.2630E+01 -0.2670E+01 -0.2720E+01 -0.2770E+01 -0.2820E+01 -0.2870E+01 -0.2920E+01 -0.2970E+01
  -0.3020E+01 -0.3080E+01 -0.3140E+01 -0.3190E+01 -0.3250E+01 -0.3310E+01 -0.3380E+01 -0.3440E+01 -0.3510E+01 -0.3580E+01
  -0.3650E+01 -0.3720E+01 -0.3790E+01 -0.3870E+01 -0.3940E+01 -0.4020E+01 -0.4100E+01 -0.4190E+01 -0.4280E+01 -0.4360E+01
  -0.4460E+01 -0.4550E+01 -0.4650E+01 -0.4750E+01 -0.4850E+01 -0.4950E+01 -0.5060E+01 -0.5170E+01 -0.5280E+01 -0.5400E+01
  -0.5520E+01 -0.5640E+01 -0.5770E+01 -0.5900E+01 -0.6040E+01 -0.6170E+01 -0.6320E+01 -0.6460E+01 -0.6610E+01 -0.6760E+01
  -0.6920E+01 -0.7080E+01 -0.7250E+01 -0.7420E+01 -0.7590E+01 -0.7770E+01 -0.7950E+01 -0.8140E+01 -0.8330E+01 -0.8530E+01
  -0.8730E+01 -0.8930E+01 -0.9140E+01 -0.9350E+01 -0.9570E+01 -0.9780E+01 -0.1001E+02 -0.1023E+02 -0.1046E+02 -0.1068E+02
  -0.1091E+02 -0.1114E+02 -0.1137E+02 -0.1160E+02 -0.1183E+02 -0.1205E+02 -0.1227E+02 -0.1248E+02 -0.1269E+02 -0.1288E+02
  -0.1306E+02 -0.1322E+02 -0.1337E+02 -0.1349E+02 -0.1359E+02 -0.1365E+02 -0.1368E+02 -0.1366E+02 -0.1359E+02 -0.1347E+02
  -0.1328E+02 -0.1301E+02 -0.1267E+02 -0.1223E+02 -0.1169E+02 -0.1105E+02 -0.1030E+02 -0.9430E+01 -0.8460E+01 -0.7390E+01
  -0.6240E+01 -0.5000E+01 -0.3710E+01 -0.2380E+01 -0.1020E+01  0.3600E+00  0.1750E+01  0.3130E+01  0.4490E+01  0.5350E+01
  -0.2560E+01
  -0.2500E+01 -0.2550E+01 -0.2590E+01 -0.2630E+01 -0.2680E+01 -0.2730E+01 -0.2770E+01 -0.2820E+01 -0.2870E+01 -0.2920E+01
  -0.2970E+01 -0.3030E+01 -0.3080E+01 -0.3140E+01 -0.3200E+01 -0.3260E+01 -0.3320E+01 -0.3380E+01 -0.3440E+01 -0.3510E+01
  -0.3580E+01 -0.3650E+01 -0.3720E+01 -0.3790E+01 -0.3860E+01 -0.3940E+01 -0.4020E+01 -0.4100E+01 -0.4180E+01 -0.4270E+01
  -0.4360E+01 -0.4450E+01 -0.4540E+01 -0.4630E+01 -0.4730E+01 -0.4830E+01 -0.4930E+01 -0.5040E+01 -0.5150E+01 -0.5260E+01
  -0.5370E+01 -0.5490E+01 -0.5610E+01 -0.5730E+01 -0.5860E+01 -0.5990E+01 -0.6120E+01 -0.6260E+01 -0.6400E+01 -0.6540E+01
  -0.6690E+01 -0.6840E+01 -0.6990E+01 -0.7150E+01 -0.7310E+01 -0.7470E+01 -0.7640E+01 -0.7810E+01 -0.7990E+01 -0.8160E+01
  -0.8350E+01 -0.8530E+01 -0.8720E+01 -0.8900E+01 -0.9100E+01 -0.9290E+01 -0.9480E+01 -0.9680E+01 -0.9870E+01 -0.1007E+02
  -0.1027E+02 -0.1046E+02 -0.1065E+02 -0.1084E+02 -0.1102E+02 -0.1120E+02 -0.1137E+02 -0.1153E+02 -0.1168E+02 -0.1181E+02
  -0.1193E+02 -0.1204E+02 -0.1212E+02 -0.1217E+02 -0.1220E+02 -0.1219E+02 -0.1215E+02 -0.1206E+02 -0.1193E+02 -0.1174E+02
  -0.1149E+02 -0.1118E+02 -0.1081E+02 -0.1035E+02 -0.9820E+01 -0.9220E+01 -0.8530E+01 -0.7760E+01 -0.6930E+01 -0.6020E+01
  -0.5060E+01 -0.4050E+01 -0.3000E+01 -0.1920E+01 -0.8200E+00  0.2900E+00  0.1410E+01  0.2520E+01  0.3620E+01  0.4280E+01
  -0.2520E+01
  -0.2470E+01 -0.2510E+01 -0.2550E+01 -0.2590E+01 -0.2640E+01 -0.2680E+01 -0.2730E+01 -0.2770E+01 -0.2820E+01 -0.2870E+01
  -0.2920E+01 -0.2970E+01 -0.3030E+01 -0.3080E+01 -0.3140E+01 -0.3200E+01 -0.3250E+01 -0.3310E+01 -0.3380E+01 -0.3440E+01
  -0.3500E+01 -0.3570E+01 -0.3640E+01 -0.3710E+01 -0.3780E+01 -0.3850E+01 -0.3930E+01 -0.4010E+01 -0.4090E+01 -0.4170E+01
  -0.4250E+01 -0.4340E+01 -0.4420E+01 -0.4510E+01 -0.4610E+01 -0.4700E+01 -0.4800E+01 -0.4900E+01 -0.5000E+01 -0.5110E+01
  -0.5210E+01 -0.5320E+01 -0.5440E+01 -0.5550E+01 -0.5670E+01 -0.5790E+01 -0.5920E+01 -0.6040E+01 -0.6170E+01 -0.6310E+01
  -0.6440E+01 -0.6580E+01 -0.6720E+01 -0.6870E+01 -0.7020E+01 -0.7170E+01 -0.7320E+01 -0.7470E+01 -0.7630E+01 -0.7790E+01
  -0.7950E+01 -0.8120E+01 -0.8280E+01 -0.8450E+01 -0.8620E+01 -0.8790E+01 -0.8950E+01 -0.9120E+01 -0.9290E+01 -0.9450E+01
  -0.9620E+01 -0.9780E+01 -0.9930E+01 -0.1008E+02 -0.1023E+02 -0.1036E+02 -0.1049E+02 -0.1060E+02 -0.1071E+02 -0.1079E+02
  -0.1086E+02 -0.1091E+02 -0.1094E+02 -0.1094E+02 -0.1092E+02 -0.1086E+02 -0.1077E+02 -0.1063E+02 -0.1046E+02 -0.1024E+02
  -0.9960E+01 -0.9640E+01 -0.9260E+01 -0.8820E+01 -0.8320E+01 -0.7760E+01 -0.7150E+01 -0.6480E+01 -0.5750E+01 -0.4990E+01
  -0.4180E+01 -0.3340E+01 -0.2470E+01 -0.1580E+01 -0.6700E+00  0.2400E+00  0.1160E+01  0.2070E+01  0.2970E+01  0.3500E+01
  -0.2490E+01
  -0.2430E+01 -0.2470E+01 -0.2510E+01 -0.2550E+01 -0.2590E+01 -0.2640E+01 -0.2680E+01 -0.2730E+01 -0.2770E+01 -0.2820E+01
  -0.2870E+01 -0.2920E+01 -0.2970E+01 -0.3020E+01 -0.3080E+01 -0.3130E+01 -0.3190E+01 -0.3250E+01 -0.3310E+01 -0.3370E+01
  -0.3430E+01 -0.3490E+01 -0.3560E+01 -0.3620E+01 -0.3690E+01 -0.3760E+01 -0.3840E+01 -0.3910E+01 -0.3980E+01 -0.4060E+01
  -0.4140E+01 -0.4220E+01 -0.4310E+01 -0.4390E+01 -0.4480E+01 -0.4570E+01 -0.4660E+01 -0.4760E+01 -0.4850E+01 -0.4950E+01
  -0.5050E+01 -0.5150E+01 -0.5260E+01 -0.5370E+01 -0.5480E+01 -0.5590E+01 -0.5710E+01 -0.5820E+01 -0.5950E+01 -0.6070E+01
  -0.6190E+01 -0.6320E+01 -0.6450E+01 -0.6580E+01 -0.6720E+01 -0.6850E+01 -0.6990E+01 -0.7130E+01 -0.7270E+01 -0.7410E+01
  -0.7560E+01 -0.7700E+01 -0.7850E+01 -0.7990E+01 -0.8140E+01 -0.8280E+01 -0.8430E+01 -0.8570E+01 -0.8710E+01 -0.8850E+01
  -0.8980E+01 -0.9110E+01 -0.9230E+01 -0.9350E+01 -0.9460E+01 -0.9550E+01 -0.9640E+01 -0.9720E+01 -0.9780E+01 -0.9830E+01
  -0.9860E+01 -0.9870E+01 -0.9860E+01 -0.9820E+01 -0.9760E+01 -0.9660E+01 -0.9540E+01 -0.9380E+01 -0.9180E+01 -0.8940E+01
  -0.8660E+01 -0.8340E+01 -0.7970E+01 -0.7560E+01 -0.7100E+01 -0.6600E+01 -0.6050E+01 -0.5470E+01 -0.4840E+01 -0.4190E+01
  -0.3500E+01 -0.2790E+01 -0.2060E+01 -0.1320E+01 -0.5600E+00  0.2000E+00  0.9600E+00  0.1730E+01  0.2480E+01  0.2910E+01
  -0.2450E+01
  -0.2390E+01 -0.2420E+01 -0.2460E+01 -0.2500E+01 -0.2550E+01 -0.2590E+01 -0.2630E+01 -0.2670E+01 -0.2720E+01 -0.2770E+01
  -0.2810E+01 -0.2860E+01 -0.2910E+01 -0.2960E+01 -0.3010E+01 -0.3070E+01 -0.3120E+01 -0.3180E+01 -0.3230E+01 -0.3290E+01
  -0.3350E+01 -0.3410E+01 -0.3470E+01 -0.3540E+01 -0.3600E+01 -0.3670E+01 -0.3740E+01 -0.3810E+01 -0.3880E+01 -0.3950E+01
  -0.4030E+01 -0.4110E+01 -0.4180E+01 -0.4270E+01 -0.4350E+01 -0.4430E+01 -0.4520E+01 -0.4610E+01 -0.4700E+01 -0.4790E+01
  -0.4880E+01 -0.4980E+01 -0.5080E+01 -0.5180E+01 -0.5280E+01 -0.5390E+01 -0.5490E+01 -0.5600E+01 -0.5710E+01 -0.5820E+01
  -0.5940E+01 -0.6050E+01 -0.6170E+01 -0.6290E+01 -0.6410E+01 -0.6530E+01 -0.6660E+01 -0.6780E+01 -0.6910E+01 -0.7030E+01
  -0.7160E+01 -0.7290E+01 -0.7410E+01 -0.7540E+01 -0.7660E+01 -0.7790E+01 -0.7910E+01 -0.8030E+01 -0.8140E+01 -0.8250E+01
  -0.8360E+01 -0.8460E+01 -0.8550E+01 -0.8640E+01 -0.8720E+01 -0.8790E+01 -0.8850E+01 -0.8890E+01 -0.8920E+01 -0.8940E+01
  -0.8930E+01 -0.8910E+01 -0.8870E+01 -0.8810E+01 -0.8720E+01 -0.8600E+01 -0.8460E+01 -0.8280E+01 -0.8070E+01 -0.7830E+01
  -0.7560E+01 -0.7250E+01 -0.6900E+01 -0.6520E+01 -0.6110E+01 -0.5660E+01 -0.5170E+01 -0.4660E+01 -0.4120E+01 -0.3550E+01
  -0.2970E+01 -0.2360E+01 -0.1750E+01 -0.1110E+01 -0.4800E+00  0.1700E+00  0.8100E+00  0.1460E+01  0.2100E+01  0.2450E+01
  -0.2410E+01
  -0.2340E+01 -0.2380E+01 -0.2420E+01 -0.2460E+01 -0.2500E+01 -0.2540E+01 -0.2580E+01 -0.2620E+01 -0.2670E+01 -0.2710E+01
  -0.2750E+01 -0.2800E+01 -0.2850E+01 -0.2900E+01 -0.2950E+01 -0.3000E+01 -0.3050E+01 -0.3100E+01 -0.3160E+01 -0.3210E+01
  -0.3270E+01 -0.3330E+01 -0.3390E+01 -0.3450E+01 -0.3510E+01 -0.3570E+01 -0.3640E+01 -0.3700E+01 -0.3770E+01 -0.3840E+01
  -0.3910E+01 -0.3990E+01 -0.4060E+01 -0.4140E+01 -0.4210E+01 -0.4290E+01 -0.4370E+01 -0.4460E+01 -0.4540E+01 -0.4630E+01
  -0.4710E+01 -0.4800E+01 -0.4890E+01 -0.4990E+01 -0.5080E+01 -0.5180E+01 -0.5280E+01 -0.5380E+01 -0.5480E+01 -0.5580E+01
  -0.5680E+01 -0.5790E+01 -0.5890E+01 -0.6000E+01 -0.6110E+01 -0.6220E+01 -0.6330E+01 -0.6440E+01 -0.6550E+01 -0.6660E+01
  -0.6770E+01 -0.6880E+01 -0.6990E+01 -0.7090E+01 -0.7200E+01 -0.7300E+01 -0.7400E+01 -0.7500E+01 -0.7590E+01 -0.7680E+01
  -0.7760E+01 -0.7840E+01 -0.7910E+01 -0.7970E+01 -0.8020E+01 -0.8070E+01 -0.8100E+01 -0.8120E+01 -0.8120E+01 -0.8110E+01
  -0.8090E+01 -0.8040E+01 -0.7980E+01 -0.7900E+01 -0.7790E+01 -0.7660E+01 -0.7510E+01 -0.7330E+01 -0.7120E+01 -0.6890E+01
  -0.6620E+01 -0.6330E+01 -0.6010E+01 -0.5660E+01 -0.5290E+01 -0.4880E+01 -0.4460E+01 -0.4010E+01 -0.3540E+01 -0.3050E+01
  -0.2540E+01 -0.2020E+01 -0.1490E+01 -0.9500E+00 -0.4100E+00  0.1400E+00  0.7000E+00  0.1250E+01  0.1790E+01  0.2090E+01
  -0.2370E+01
  -0.2300E+01 -0.2340E+01 -0.2370E+01 -0.2410E+01 -0.2450E+01 -0.2490E+01 -0.2530E+01 -0.2570E+01 -0.2610E+01 -0.2650E+01
  -0.2700E+01 -0.2740E+01 -0.2790E+01 -0.2830E+01 -0.2880E+01 -0.2930E+01 -0.2980E+01 -0.3030E+01 -0.3080E+01 -0.3130E+01
  -0.3190E+01 -0.3240E+01 -0.3300E+01 -0.3360E+01 -0.3410E+01 -0.3470E+01 -0.3540E+01 -0.3600E+01 -0.3660E+01 -0.3730E+01
  -0.3800E+01 -0.3860E+01 -0.3930E+01 -0.4000E+01 -0.4080E+01 -0.4150E+01 -0.4230E+01 -0.4300E+01 -0.4380E+01 -0.4460E+01
  -0.4540E+01 -0.4630E+01 -0.4710E+01 -0.4790E+01 -0.4880E+01 -0.4970E+01 -0.5060E+01 -0.5150E+01 -0.5240E+01 -0.5330E+01
  -0.5430E+01 -0.5520E+01 -0.5620E+01 -0.5710E+01 -0.5810E+01 -0.5910E+01 -0.6000E+01 -0.6100E+01 -0.6200E+01 -0.6290E+01
  -0.6390E+01 -0.6480E+01 -0.6570E+01 -0.6660E+01 -0.6750E+01 -0.6830E+01 -0.6920E+01 -0.6990E+01 -0.7070E+01 -0.7130E+01
  -0.7200E+01 -0.7250E+01 -0.7300E+01 -0.7340E+01 -0.7370E+01 -0.7400E+01 -0.7410E+01 -0.7400E+01 -0.7390E+01 -0.7360E+01
  -0.7320E+01 -0.7260E+01 -0.7180E+01 -0.7090E+01 -0.6970E+01 -0.6830E+01 -0.6680E+01 -0.6500E+01 -0.6300E+01 -0.6070E+01
  -0.5820E+01 -0.5550E+01 -0.5260E+01 -0.4940E+01 -0.4600E+01 -0.4250E+01 -0.3870E+01 -0.3470E+01 -0.3060E+01 -0.2630E+01
  -0.2190E+01 -0.1740E+01 -0.1290E+01 -0.8200E+00 -0.3500E+00  0.1200E+00  0.6000E+00  0.1070E+01  0.1540E+01  0.1800E+01
  -0.2320E+01
  -0.2260E+01 -0.2290E+01 -0.2320E+01 -0.2360E+01 -0.2400E+01 -0.2430E+01 -0.2470E+01 -0.2510E+01 -0.2550E+01 -0.2590E+01
  -0.2630E+01 -0.2680E+01 -0.2720E+01 -0.2760E+01 -0.2810E+01 -0.2860E+01 -0.2900E+01 -0.2950E+01 -0.3000E+01 -0.3050E+01
  -0.3100E+01 -0.3150E+01 -0.3210E+01 -0.3260E+01 -0.3320E+01 -0.3370E+01 -0.3430E+01 -0.3490E+01 -0.3550E+01 -0.3610E+01
  -0.3680E+01 -0.3740E+01 -0.3810E+01 -0.3870E+01 -0.3940E+01 -0.4010E+01 -0.4080E+01 -0.4150E+01 -0.4220E+01 -0.4300E+01
  -0.4370E+01 -0.4450E+01 -0.4520E+01 -0.4600E+01 -0.4680E+01 -0.4760E+01 -0.4840E+01 -0.4920E+01 -0.5010E+01 -0.5090E+01
  -0.5170E+01 -0.5260E+01 -0.5340E+01 -0.5430E+01 -0.5510E+01 -0.5600E+01 -0.5680E+01 -0.5770E+01 -0.5850E+01 -0.5930E+01
  -0.6010E+01 -0.6090E+01 -0.6170E+01 -0.6240E+01 -0.6320E+01 -0.6380E+01 -0.6450E+01 -0.6510E+01 -0.6570E+01 -0.6620E+01
  -0.6660E+01 -0.6700E+01 -0.6730E+01 -0.6750E+01 -0.6770E+01 -0.6770E+01 -0.6770E+01 -0.6750E+01 -0.6720E+01 -0.6680E+01
  -0.6620E+01 -0.6550E+01 -0.6470E+01 -0.6360E+01 -0.6240E+01 -0.6110E+01 -0.5950E+01 -0.5780E+01 -0.5590E+01 -0.5370E+01
  -0.5140E+01 -0.4890E+01 -0.4620E+01 -0.4340E+01 -0.4030E+01 -0.3710E+01 -0.3380E+01 -0.3030E+01 -0.2670E+01 -0.2290E+01
  -0.1910E+01 -0.1520E+01 -0.1120E+01 -0.7100E+00 -0.3000E+00  0.1100E+00  0.5200E+00  0.9300E+00  0.1340E+01  0.1560E+01
  -0.2280E+01
  -0.2210E+01 -0.2240E+01 -0.2280E+01 -0.2310E+01 -0.2350E+01 -0.2380E+01 -0.2420E+01 -0.2460E+01 -0.2490E+01 -0.2530E+01
  -0.2570E+01 -0.2610E+01 -0.2650E+01 -0.2700E+01 -0.2740E+01 -0.2780E+01 -0.2830E+01 -0.2870E+01 -0.2920E+01 -0.2970E+01
  -0.3020E+01 -0.3070E+01 -0.3120E+01 -0.3170E+01 -0.3220E+01 -0.3270E+01 -0.3330E+01 -0.3380E+01 -0.3440E+01 -0.3500E+01
  -0.3560E+01 -0.3620E+01 -0.3680E+01 -0.3740E+01 -0.3800E+01 -0.3860E+01 -0.3930E+01 -0.4000E+01 -0.4060E+01 -0.4130E+01
  -0.4200E+01 -0.4270E+01 -0.4340E+01 -0.4410E+01 -0.4480E+01 -0.4550E+01 -0.4630E+01 -0.4700E+01 -0.4780E+01 -0.4850E+01
  -0.4920E+01 -0.5000E+01 -0.5070E+01 -0.5150E+01 -0.5220E+01 -0.5300E+01 -0.5370E+01 -0.5440E+01 -0.5520E+01 -0.5590E+01
  -0.5650E+01 -0.5720E+01 -0.5780E+01 -0.5840E+01 -0.5900E+01 -0.5960E+01 -0.6010E+01 -0.6050E+01 -0.6090E+01 -0.6130E+01
  -0.6160E+01 -0.6180E+01 -0.6200E+01 -0.6210E+01 -0.6210E+01 -0.6200E+01 -0.6180E+01 -0.6150E+01 -0.6110E+01 -0.6060E+01
  -0.6000E+01 -0.5920E+01 -0.5830E+01 -0.5720E+01 -0.5600E+01 -0.5470E+01 -0.5320E+01 -0.5150E+01 -0.4970E+01 -0.4770E+01
  -0.4560E+01 -0.4330E+01 -0.4080E+01 -0.3820E+01 -0.3550E+01 -0.3260E+01 -0.2970E+01 -0.2660E+01 -0.2340E+01 -0.2010E+01
  -0.1670E+01 -0.1330E+01 -0.9800E+00 -0.6200E+00 -0.2700E+00  0.9000E-01  0.4500E+00  0.8100E+00  0.1170E+01  0.1360E+01
  -0.2230E+01
  -0.2160E+01 -0.2190E+01 -0.2230E+01 -0.2260E+01 -0.2290E+01 -0.2330E+01 -0.2360E+01 -0.2400E+01 -0.2440E+01 -0.2470E+01
  -0.2510E+01 -0.2550E+01 -0.2590E+01 -0.2630E+01 -0.2670E+01 -0.2710E+01 -0.2750E+01 -0.2800E+01 -0.2840E+01 -0.2890E+01
  -0.2930E+01 -0.2980E+01 -0.3030E+01 -0.3070E+01 -0.3120E+01 -0.3170E+01 -0.3220E+01 -0.3280E+01 -0.3330E+01 -0.3380E+01
  -0.3440E+01 -0.3490E+01 -0.3550E+01 -0.3610E+01 -0.3660E+01 -0.3720E+01 -0.3780E+01 -0.3840E+01 -0.3900E+01 -0.3970E+01
  -0.4030E+01 -0.4090E+01 -0.4160E+01 -0.4220E+01 -0.4290E+01 -0.4350E+01 -0.4420E+01 -0.4480E+01 -0.4550E+01 -0.4620E+01
  -0.4680E+01 -0.4750E+01 -0.4810E+01 -0.4880E+01 -0.4940E+01 -0.5010E+01 -0.5070E+01 -0.5130E+01 -0.5190E+01 -0.5250E+01
  -0.5310E+01 -0.5360E+01 -0.5410E+01 -0.5460E+01 -0.5510E+01 -0.5550E+01 -0.5590E+01 -0.5620E+01 -0.5650E+01 -0.5680E+01
  -0.5690E+01 -0.5700E+01 -0.5710E+01 -0.5710E+01 -0.5700E+01 -0.5680E+01 -0.5650E+01 -0.5610E+01 -0.5560E+01 -0.5510E+01
  -0.5440E+01 -0.5350E+01 -0.5260E+01 -0.5160E+01 -0.5040E+01 -0.4910E+01 -0.4760E+01 -0.4610E+01 -0.4430E+01 -0.4250E+01
  -0.4050E+01 -0.3840E+01 -0.3620E+01 -0.3390E+01 -0.3140E+01 -0.2880E+01 -0.2620E+01 -0.2340E+01 -0.2060E+01 -0.1770E+01
  -0.1470E+01 -0.1170E+01 -0.8600E+00 -0.5500E+00 -0.2300E+00  0.8000E-01  0.4000E+00  0.7100E+00  0.1030E+01  0.1190E+01
  -0.2190E+01
  -0.2120E+01 -0.2150E+01 -0.2180E+01 -0.2210E+01 -0.2240E+01 -0.2270E+01 -0.2310E+01 -0.2340E+01 -0.2380E+01 -0.2410E+01
  -0.2450E+01 -0.2480E+01 -0.2520E+01 -0.2560E+01 -0.2600E+01 -0.2640E+01 -0.2680E+01 -0.2720E+01 -0.2760E+01 -0.2800E+01
  -0.2840E+01 -0.2890E+01 -0.2930E+01 -0.2980E+01 -0.3020E+01 -0.3070E+01 -0.3120E+01 -0.3170E+01 -0.3220E+01 -0.3270E+01
  -0.3320E+01 -0.3370E+01 -0.3420E+01 -0.3470E+01 -0.3530E+01 -0.3580E+01 -0.3640E+01 -0.3690E+01 -0.3750E+01 -0.3800E+01
  -0.3860E+01 -0.3920E+01 -0.3980E+01 -0.4030E+01 -0.4090E+01 -0.4150E+01 -0.4210E+01 -0.4270E+01 -0.4330E+01 -0.4390E+01
  -0.4440E+01 -0.4500E+01 -0.4560E+01 -0.4620E+01 -0.4670E+01 -0.4730E+01 -0.4780E+01 -0.4830E+01 -0.4880E+01 -0.4930E+01
  -0.4980E+01 -0.5020E+01 -0.5060E+01 -0.5100E+01 -0.5140E+01 -0.5170E+01 -0.5200E+01 -0.5220E+01 -0.5240E+01 -0.5250E+01
  -0.5260E+01 -0.5260E+01 -0.5260E+01 -0.5240E+01 -0.5220E+01 -0.5200E+01 -0.5160E+01 -0.5120E+01 -0.5070E+01 -0.5000E+01
  -0.4930E+01 -0.4850E+01 -0.4760E+01 -0.4650E+01 -0.4540E+01 -0.4410E+01 -0.4280E+01 -0.4130E+01 -0.3970E+01 -0.3800E+01
  -0.3620E+01 -0.3420E+01 -0.3220E+01 -0.3010E+01 -0.2790E+01 -0.2560E+01 -0.2320E+01 -0.2070E+01 -0.1820E+01 -0.1560E+01
  -0.1300E+01 -0.1030E+01 -0.7600E+00 -0.4800E+00 -0.2100E+00  0.7000E-01  0.3500E+00  0.6300E+00  0.9100E+00  0.1050E+01
  -0.2140E+01
  -0.2070E+01 -0.2100E+01 -0.2130E+01 -0.2160E+01 -0.2190E+01 -0.2220E+01 -0.2250E+01 -0.2280E+01 -0.2320E+01 -0.2350E+01
  -0.2380E+01 -0.2420E+01 -0.2450E+01 -0.2490E+01 -0.2530E+01 -0.2560E+01 -0.2600E+01 -0.2640E+01 -0.2680E+01 -0.2720E+01
  -0.2760E+01 -0.2800E+01 -0.2840E+01 -0.2880E+01 -0.2930E+01 -0.2970E+01 -0.3010E+01 -0.3060E+01 -0.3110E+01 -0.3150E+01
  -0.3200E+01 -0.3250E+01 -0.3290E+01 -0.3340E+01 -0.3390E+01 -0.3440E+01 -0.3490E+01 -0.3540E+01 -0.3590E+01 -0.3640E+01
  -0.3700E+01 -0.3750E+01 -0.3800E+01 -0.3850E+01 -0.3900E+01 -0.3960E+01 -0.4010E+01 -0.4060E+01 -0.4110E+01 -0.4160E+01
  -0.4220E+01 -0.4270E+01 -0.4320E+01 -0.4360E+01 -0.4410E+01 -0.4460E+01 -0.4500E+01 -0.4550E+01 -0.4590E+01 -0.4630E+01
  -0.4670E+01 -0.4700E+01 -0.4730E+01 -0.4760E+01 -0.4790E+01 -0.4810E+01 -0.4830E+01 -0.4840E+01 -0.4850E+01 -0.4860E+01
  -0.4860E+01 -0.4850E+01 -0.4840E+01 -0.4820E+01 -0.4790E+01 -0.4760E+01 -0.4720E+01 -0.4670E+01 -0.4620E+01 -0.4550E+01
  -0.4480E+01 -0.4400E+01 -0.4310E+01 -0.4210E+01 -0.4100E+01 -0.3980E+01 -0.3850E+01 -0.3710E+01 -0.3560E+01 -0.3400E+01
  -0.3240E+01 -0.3060E+01 -0.2880E+01 -0.2690E+01 -0.2490E+01 -0.2280E+01 -0.2060E+01 -0.1840E+01 -0.1620E+01 -0.1390E+01
  -0.1150E+01 -0.9100E+00 -0.6700E+00 -0.4300E+00 -0.1800E+00  0.6000E-01  0.3100E+00  0.5600E+00  0.8100E+00  0.9300E+00
  -0.2090E+01
  -0.2020E+01 -0.2050E+01 -0.2080E+01 -0.2100E+01 -0.2130E+01 -0.2160E+01 -0.2190E+01 -0.2220E+01 -0.2260E+01 -0.2290E+01
  -0.2320E+01 -0.2350E+01 -0.2390E+01 -0.2420E+01 -0.2450E+01 -0.2490E+01 -0.2520E+01 -0.2560E+01 -0.2600E+01 -0.2630E+01
  -0.2670E+01 -0.2710E+01 -0.2750E+01 -0.2790E+01 -0.2830E+01 -0.2870E+01 -0.2910E+01 -0.2950E+01 -0.3000E+01 -0.3040E+01
  -0.3080E+01 -0.3120E+01 -0.3170E+01 -0.3210E+01 -0.3260E+01 -0.3300E+01 -0.3350E+01 -0.3390E+01 -0.3440E+01 -0.3490E+01
  -0.3530E+01 -0.3580E+01 -0.3630E+01 -0.3670E+01 -0.3720E+01 -0.3770E+01 -0.3810E+01 -0.3860E+01 -0.3900E+01 -0.3950E+01
  -0.3990E+01 -0.4040E+01 -0.4080E+01 -0.4120E+01 -0.4160E+01 -0.4200E+01 -0.4240E+01 -0.4270E+01 -0.4310E+01 -0.4340E+01
  -0.4370E+01 -0.4400E+01 -0.4420E+01 -0.4440E+01 -0.4460E+01 -0.4480E+01 -0.4490E+01 -0.4490E+01 -0.4500E+01 -0.4490E+01
  -0.4490E+01 -0.4470E+01 -0.4450E+01 -0.4430E+01 -0.4400E+01 -0.4360E+01 -0.4320E+01 -0.4270E+01 -0.4210E+01 -0.4150E+01
  -0.4070E+01 -0.3990E+01 -0.3910E+01 -0.3810E+01 -0.3700E+01 -0.3590E+01 -0.3470E+01 -0.3340E+01 -0.3200E+01 -0.3060E+01
  -0.2910E+01 -0.2750E+01 -0.2580E+01 -0.2400E+01 -0.2220E+01 -0.2040E+01 -0.1840E+01 -0.1650E+01 -0.1440E+01 -0.1240E+01
  -0.1030E+01 -0.8200E+00 -0.6000E+00 -0.3800E+00 -0.1600E+00  0.6000E-01  0.2800E+00  0.5000E+00  0.7200E+00  0.8300E+00
  -0.2050E+01
  -0.1970E+01 -0.2000E+01 -0.2020E+01 -0.2050E+01 -0.2080E+01 -0.2110E+01 -0.2140E+01 -0.2170E+01 -0.2200E+01 -0.2230E+01
  -0.2260E+01 -0.2290E+01 -0.2320E+01 -0.2350E+01 -0.2380E+01 -0.2420E+01 -0.2450E+01 -0.2480E+01 -0.2520E+01 -0.2550E+01
  -0.2590E+01 -0.2620E+01 -0.2660E+01 -0.2700E+01 -0.2730E+01 -0.2770E+01 -0.2810E+01 -0.2850E+01 -0.2890E+01 -0.2930E+01
  -0.2970E+01 -0.3010E+01 -0.3050E+01 -0.3090E+01 -0.3130E+01 -0.3170E+01 -0.3210E+01 -0.3250E+01 -0.3290E+01 -0.3330E+01
  -0.3380E+01 -0.3420E+01 -0.3460E+01 -0.3500E+01 -0.3540E+01 -0.3580E+01 -0.3620E+01 -0.3660E+01 -0.3700E+01 -0.3740E+01
  -0.3780E+01 -0.3820E+01 -0.3860E+01 -0.3890E+01 -0.3920E+01 -0.3960E+01 -0.3990E+01 -0.4020E+01 -0.4040E+01 -0.4070E+01
  -0.4090E+01 -0.4110E+01 -0.4130E+01 -0.4140E+01 -0.4150E+01 -0.4160E+01 -0.4170E+01 -0.4170E+01 -0.4160E+01 -0.4160E+01
  -0.4140E+01 -0.4130E+01 -0.4100E+01 -0.4080E+01 -0.4040E+01 -0.4000E+01 -0.3960E+01 -0.3910E+01 -0.3850E+01 -0.3780E+01
  -0.3710E+01 -0.3630E+01 -0.3550E+01 -0.3460E+01 -0.3360E+01 -0.3250E+01 -0.3140E+01 -0.3020E+01 -0.2890E+01 -0.2760E+01
  -0.2620E+01 -0.2470E+01 -0.2320E+01 -0.2160E+01 -0.1990E+01 -0.1830E+01 -0.1650E+01 -0.1480E+01 -0.1290E+01 -0.1110E+01
  -0.9200E+00 -0.7300E+00 -0.5400E+00 -0.3400E+00 -0.1500E+00  0.5000E-01  0.2500E+00  0.4500E+00  0.6400E+00  0.7400E+00
  -0.2000E+01
  -0.1930E+01 -0.1950E+01 -0.1970E+01 -0.2000E+01 -0.2030E+01 -0.2050E+01 -0.2080E+01 -0.2110E+01 -0.2140E+01 -0.2160E+01
  -0.2190E+01 -0.2220E+01 -0.2250E+01 -0.2280E+01 -0.2310E+01 -0.2340E+01 -0.2370E+01 -0.2410E+01 -0.2440E+01 -0.2470E+01
  -0.2500E+01 -0.2540E+01 -0.2570E+01 -0.2600E+01 -0.2640E+01 -0.2670E+01 -0.2710E+01 -0.2740E+01 -0.2780E+01 -0.2820E+01
  -0.2850E+01 -0.2890E+01 -0.2930E+01 -0.2960E+01 -0.3000E+01 -0.3040E+01 -0.3070E+01 -0.3110E+01 -0.3150E+01 -0.3190E+01
  -0.3220E+01 -0.3260E+01 -0.3300E+01 -0.3330E+01 -0.3370E+01 -0.3410E+01 -0.3440E+01 -0.3480E+01 -0.3510E+01 -0.3550E+01
  -0.3580E+01 -0.3610E+01 -0.3640E+01 -0.3670E+01 -0.3700E+01 -0.3720E+01 -0.3750E+01 -0.3770E+01 -0.3790E+01 -0.3810E+01
  -0.3830E+01 -0.3840E+01 -0.3850E+01 -0.3860E+01 -0.3870E+01 -0.3870E+01 -0.3870E+01 -0.3870E+01 -0.3860E+01 -0.3850E+01
  -0.3830E+01 -0.3810E+01 -0.3780E+01 -0.3750E+01 -0.3720E+01 -0.3670E+01 -0.3630E+01 -0.3580E+01 -0.3520E+01 -0.3460E+01
  -0.3390E+01 -0.3310E+01 -0.3230E+01 -0.3140E+01 -0.3050E+01 -0.2950E+01 -0.2840E+01 -0.2730E+01 -0.2610E+01 -0.2490E+01
  -0.2360E+01 -0.2230E+01 -0.2090E+01 -0.1940E+01 -0.1800E+01 -0.1640E+01 -0.1490E+01 -0.1330E+01 -0.1160E+01 -0.1000E+01
  -0.8300E+00 -0.6500E+00 -0.4800E+00 -0.3100E+00 -0.1300E+00  0.5000E-01  0.2200E+00  0.4000E+00  0.5800E+00  0.6700E+00
  -0.1950E+01
  -0.1880E+01 -0.1900E+01 -0.1920E+01 -0.1950E+01 -0.1970E+01 -0.2000E+01 -0.2020E+01 -0.2050E+01 -0.2080E+01 -0.2100E+01
  -0.2130E+01 -0.2160E+01 -0.2180E+01 -0.2210E+01 -0.2240E+01 -0.2270E+01 -0.2300E+01 -0.2330E+01 -0.2360E+01 -0.2390E+01
  -0.2420E+01 -0.2450E+01 -0.2480E+01 -0.2510E+01 -0.2540E+01 -0.2580E+01 -0.2610E+01 -0.2640E+01 -0.2670E+01 -0.2710E+01
  -0.2740E+01 -0.2770E+01 -0.2810E+01 -0.2840E+01 -0.2870E+01 -0.2910E+01 -0.2940E+01 -0.2980E+01 -0.3010E+01 -0.3040E+01
  -0.3080E+01 -0.3110E+01 -0.3140E+01 -0.3170E+01 -0.3210E+01 -0.3240E+01 -0.3270E+01 -0.3300E+01 -0.3330E+01 -0.3360E+01
  -0.3380E+01 -0.3410E+01 -0.3440E+01 -0.3460E+01 -0.3480E+01 -0.3500E+01 -0.3520E+01 -0.3540E+01 -0.3560E+01 -0.3570E+01
  -0.3580E+01 -0.3590E+01 -0.3600E+01 -0.3600E+01 -0.3600E+01 -0.3600E+01 -0.3600E+01 -0.3590E+01 -0.3580E+01 -0.3560E+01
  -0.3540E+01 -0.3520E+01 -0.3490E+01 -0.3460E+01 -0.3420E+01 -0.3380E+01 -0.3330E+01 -0.3280E+01 -0.3220E+01 -0.3160E+01
  -0.3090E+01 -0.3020E+01 -0.2940E+01 -0.2860E+01 -0.2770E+01 -0.2680E+01 -0.2580E+01 -0.2480E+01 -0.2370E+01 -0.2250E+01
  -0.2140E+01 -0.2010E+01 -0.1890E+01 -0.1760E+01 -0.1620E+01 -0.1480E+01 -0.1340E+01 -0.1190E+01 -0.1050E+01 -0.9000E+00
  -0.7400E+00 -0.5900E+00 -0.4300E+00 -0.2800E+00 -0.1200E+00  0.4000E-01  0.2000E+00  0.3600E+00  0.5200E+00  0.6000E+00
  -0.1900E+01
  -0.1830E+01 -0.1850E+01 -0.1870E+01 -0.1900E+01 -0.1920E+01 -0.1940E+01 -0.1970E+01 -0.1990E+01 -0.2020E+01 -0.2040E+01
  -0.2070E+01 -0.2090E+01 -0.2120E+01 -0.2140E+01 -0.2170E+01 -0.2200E+01 -0.2230E+01 -0.2250E+01 -0.2280E+01 -0.2310E+01
  -0.2340E+01 -0.2370E+01 -0.2390E+01 -0.2420E+01 -0.2450E+01 -0.2480E+01 -0.2510E+01 -0.2540E+01 -0.2570E+01 -0.2600E+01
  -0.2630E+01 -0.2660E+01 -0.2690E+01 -0.2720E+01 -0.2750E+01 -0.2780E+01 -0.2810E+01 -0.2840E+01 -0.2870E+01 -0.2900E+01
  -0.2930E+01 -0.2960E+01 -0.2990E+01 -0.3020E+01 -0.3050E+01 -0.3070E+01 -0.3100E+01 -0.3130E+01 -0.3150E+01 -0.3180E+01
  -0.3200E+01 -0.3220E+01 -0.3240E+01 -0.3260E+01 -0.3280E+01 -0.3300E+01 -0.3310E+01 -0.3320E+01 -0.3340E+01 -0.3350E+01
  -0.3350E+01 -0.3360E+01 -0.3360E+01 -0.3360E+01 -0.3360E+01 -0.3350E+01 -0.3340E+01 -0.3330E+01 -0.3320E+01 -0.3300E+01
  -0.3280E+01 -0.3250E+01 -0.3220E+01 -0.3190E+01 -0.3150E+01 -0.3110E+01 -0.3060E+01 -0.3010E+01 -0.2950E+01 -0.2890E+01
  -0.2830E+01 -0.2760E+01 -0.2690E+01 -0.2610E+01 -0.2530E+01 -0.2440E+01 -0.2350E+01 -0.2250E+01 -0.2150E+01 -0.2050E+01
  -0.1940E+01 -0.1830E+01 -0.1710E+01 -0.1590E+01 -0.1470E+01 -0.1340E+01 -0.1210E+01 -0.1080E+01 -0.9500E+00 -0.8100E+00
  -0.6700E+00 -0.5300E+00 -0.3900E+00 -0.2500E+00 -0.1100E+00  0.4000E-01  0.1800E+00  0.3200E+00  0.4700E+00  0.5400E+00
  -0.1850E+01
  -0.1780E+01 -0.1800E+01 -0.1820E+01 -0.1840E+01 -0.1870E+01 -0.1890E+01 -0.1910E+01 -0.1930E+01 -0.1960E+01 -0.1980E+01
  -0.2000E+01 -0.2030E+01 -0.2050E+01 -0.2080E+01 -0.2100E+01 -0.2130E+01 -0.2150E+01 -0.2180E+01 -0.2200E+01 -0.2230E+01
  -0.2260E+01 -0.2280E+01 -0.2310E+01 -0.2340E+01 -0.2360E+01 -0.2390E+01 -0.2420E+01 -0.2440E+01 -0.2470E+01 -0.2500E+01
  -0.2530E+01 -0.2550E+01 -0.2580E+01 -0.2610E+01 -0.2640E+01 -0.2660E+01 -0.2690E+01 -0.2720E+01 -0.2740E+01 -0.2770E+01
  -0.2800E+01 -0.2820E+01 -0.2850E+01 -0.2870E+01 -0.2890E+01 -0.2920E+01 -0.2940E+01 -0.2960E+01 -0.2980E+01 -0.3000E+01
  -0.3020E+01 -0.3040E+01 -0.3060E+01 -0.3070E+01 -0.3090E+01 -0.3100E+01 -0.3110E+01 -0.3120E+01 -0.3130E+01 -0.3130E+01
  -0.3140E+01 -0.3140E+01 -0.3140E+01 -0.3130E+01 -0.3130E+01 -0.3120E+01 -0.3110E+01 -0.3090E+01 -0.3080E+01 -0.3060E+01
  -0.3030E+01 -0.3010E+01 -0.2970E+01 -0.2940E+01 -0.2900E+01 -0.2860E+01 -0.2820E+01 -0.2770E+01 -0.2710E+01 -0.2650E+01
  -0.2590E+01 -0.2530E+01 -0.2460E+01 -0.2380E+01 -0.2310E+01 -0.2230E+01 -0.2140E+01 -0.2050E+01 -0.1960E+01 -0.1860E+01
  -0.1760E+01 -0.1660E+01 -0.1550E+01 -0.1440E+01 -0.1330E+01 -0.1220E+01 -0.1100E+01 -0.9800E+00 -0.8600E+00 -0.7300E+00
  -0.6100E+00 -0.4800E+00 -0.3500E+00 -0.2300E+00 -0.1000E+00  0.3000E-01  0.1600E+00  0.2900E+00  0.4200E+00  0.4900E+00
  -0.1800E+01
  -0.1740E+01 -0.1750E+01 -0.1770E+01 -0.1790E+01 -0.1820E+01 -0.1840E+01 -0.1860E+01 -0.1880E+01 -0.1900E+01 -0.1920E+01
  -0.1950E+01 -0.1970E+01 -0.1990E+01 -0.2010E+01 -0.2040E+01 -0.2060E+01 -0.2080E+01 -0.2110E+01 -0.2130E+01 -0.2150E+01
  -0.2180E+01 -0.2200E+01 -0.2230E+01 -0.2250E+01 -0.2280E+01 -0.2300E+01 -0.2330E+01 -0.2350E+01 -0.2380E+01 -0.2400E+01
  -0.2420E+01 -0.2450E+01 -0.2470E+01 -0.2500E+01 -0.2520E+01 -0.2550E+01 -0.2570E+01 -0.2590E+01 -0.2620E+01 -0.2640E+01
  -0.2660E+01 -0.2680E+01 -0.2710E+01 -0.2730E+01 -0.2750E+01 -0.2770E+01 -0.2790E+01 -0.2800E+01 -0.2820E+01 -0.2840E+01
  -0.2850E+01 -0.2870E+01 -0.2880E+01 -0.2890E+01 -0.2900E+01 -0.2910E+01 -0.2920E+01 -0.2920E+01 -0.2930E+01 -0.2930E+01
  -0.2930E+01 -0.2920E+01 -0.2920E+01 -0.2910E+01 -0.2900E+01 -0.2890E+01 -0.2880E+01 -0.2860E+01 -0.2840E+01 -0.2820E+01
  -0.2790E+01 -0.2760E+01 -0.2730E+01 -0.2700E+01 -0.2660E+01 -0.2620E+01 -0.2570E+01 -0.2520E+01 -0.2470E+01 -0.2410E+01
  -0.2360E+01 -0.2290E+01 -0.2230E+01 -0.2160E+01 -0.2080E+01 -0.2010E+01 -0.1930E+01 -0.1850E+01 -0.1760E+01 -0.1670E+01
  -0.1580E+01 -0.1490E+01 -0.1390E+01 -0.1290E+01 -0.1190E+01 -0.1090E+01 -0.9800E+00 -0.8700E+00 -0.7600E+00 -0.6500E+00
  -0.5400E+00 -0.4300E+00 -0.3100E+00 -0.2000E+00 -0.9000E-01  0.3000E-01  0.1500E+00  0.2600E+00  0.3800E+00  0.4400E+00
  -0.1760E+01
  -0.1010E+01 -0.1050E+01 -0.1070E+01 -0.1100E+01 -0.1130E+01 -0.1160E+01 -0.1190E+01 -0.1220E+01 -0.1250E+01 -0.1280E+01
  -0.1320E+01 -0.1350E+01 -0.1390E+01 -0.1420E+01 -0.1460E+01 -0.1500E+01 -0.1540E+01 -0.1590E+01 -0.1630E+01 -0.1670E+01
  -0.1720E+01 -0.1770E+01 -0.1820E+01 -0.1870E+01 -0.1920E+01 -0.1980E+01 -0.2030E+01 -0.2090E+01 -0.2150E+01 -0.2220E+01
  -0.2280E+01 -0.2350E+01 -0.2420E+01 -0.2490E+01 -0.2560E+01 -0.2640E+01 -0.2710E+01 -0.2800E+01 -0.2880E+01 -0.2970E+01
  -0.3060E+01 -0.3150E+01 -0.3240E+01 -0.3340E+01 -0.3440E+01 -0.3550E+01 -0.3660E+01 -0.3770E+01 -0.3890E+01 -0.4010E+01
  -0.4130E+01 -0.4260E+01 -0.4390E+01 -0.4520E+01 -0.4660E+01 -0.4800E+01 -0.4950E+01 -0.5100E+01 -0.5260E+01 -0.5420E+01
  -0.5590E+01 -0.5750E+01 -0.5930E+01 -0.6110E+01 -0.6290E+01 -0.6470E+01 -0.6670E+01 -0.6860E+01 -0.7060E+01 -0.7260E+01
  -0.7470E+01 -0.7680E+01 -0.7890E+01 -0.8110E+01 -0.8330E+01 -0.8550E+01 -0.8770E+01 -0.9000E+01 -0.9220E+01 -0.9450E+01
  -0.9680E+01 -0.9910E+01 -0.1013E+02 -0.1036E+02 -0.1058E+02 -0.1080E+02 -0.1101E+02 -0.1122E+02 -0.1143E+02 -0.1163E+02
  -0.1182E+02 -0.1201E+02 -0.1218E+02 -0.1235E+02 -0.1251E+02 -0.1265E+02 -0.1279E+02 -0.1291E+02 -0.1302E+02 -0.1312E+02
  -0.1320E+02 -0.1327E+02 -0.1332E+02 -0.1335E+02 -0.1338E+02 -0.1338E+02 -0.1337E+02 -0.1335E+02 -0.1331E+02 -0.1327E+02
  -0.1020E+01
  -0.9800E+00 -0.1010E+01 -0.1040E+01 -0.1070E+01 -0.1090E+01 -0.1120E+01 -0.1150E+01 -0.1180E+01 -0.1210E+01 -0.1250E+01
  -0.1280E+01 -0.1310E+01 -0.1350E+01 -0.1390E+01 -0.1420E+01 -0.1460E+01 -0.1500E+01 -0.1550E+01 -0.1590E+01 -0.1630E+01
  -0.1680E+01 -0.1730E+01 -0.1780E+01 -0.1830E+01 -0.1880E+01 -0.1940E+01 -0.1990E+01 -0.2050E+01 -0.2110E+01 -0.2170E+01
  -0.2240E+01 -0.2310E+01 -0.2370E+01 -0.2450E+01 -0.2520E+01 -0.2600E+01 -0.2680E+01 -0.2760E+01 -0.2840E+01 -0.2930E+01
  -0.3020E+01 -0.3110E+01 -0.3210E+01 -0.3310E+01 -0.3420E+01 -0.3520E+01 -0.3630E+01 -0.3750E+01 -0.3870E+01 -0.3990E+01
  -0.4120E+01 -0.4250E+01 -0.4380E+01 -0.4520E+01 -0.4670E+01 -0.4820E+01 -0.4970E+01 -0.5130E+01 -0.5290E+01 -0.5460E+01
  -0.5630E+01 -0.5810E+01 -0.5990E+01 -0.6180E+01 -0.6370E+01 -0.6570E+01 -0.6770E+01 -0.6980E+01 -0.7190E+01 -0.7410E+01
  -0.7630E+01 -0.7850E+01 -0.8080E+01 -0.8310E+01 -0.8550E+01 -0.8790E+01 -0.9030E+01 -0.9280E+01 -0.9520E+01 -0.9770E+01
  -0.1002E+02 -0.1027E+02 -0.1052E+02 -0.1077E+02 -0.1101E+02 -0.1126E+02 -0.1149E+02 -0.1173E+02 -0.1196E+02 -0.1218E+02
  -0.1240E+02 -0.1261E+02 -0.1280E+02 -0.1299E+02 -0.1317E+02 -0.1334E+02 -0.1349E+02 -0.1363E+02 -0.1375E+02 -0.1386E+02
  -0.1395E+02 -0.1403E+02 -0.1409E+02 -0.1413E+02 -0.1416E+02 -0.1416E+02 -0.1415E+02 -0.1413E+02 -0.1408E+02 -0.1403E+02
  -0.1000E+01
  -0.9500E+00 -0.9800E+00 -0.1000E+01 -0.1030E+01 -0.1060E+01 -0.1080E+01 -0.1110E+01 -0.1140E+01 -0.1170E+01 -0.1210E+01
  -0.1240E+01 -0.1270E+01 -0.1310E+01 -0.1340E+01 -0.1380E+01 -0.1420E+01 -0.1460E+01 -0.1500E+01 -0.1540E+01 -0.1590E+01
  -0.1630E+01 -0.1680E+01 -0.1730E+01 -0.1780E+01 -0.1830E+01 -0.1890E+01 -0.1940E+01 -0.2000E+01 -0.2060E+01 -0.2130E+01
  -0.2190E+01 -0.2260E+01 -0.2330E+01 -0.2400E+01 -0.2470E+01 -0.2550E+01 -0.2630E+01 -0.2710E+01 -0.2800E+01 -0.2880E+01
  -0.2980E+01 -0.3070E+01 -0.3170E+01 -0.3270E+01 -0.3380E+01 -0.3490E+01 -0.3600E+01 -0.3720E+01 -0.3840E+01 -0.3960E+01
  -0.4090E+01 -0.4230E+01 -0.4370E+01 -0.4510E+01 -0.4660E+01 -0.4810E+01 -0.4970E+01 -0.5140E+01 -0.5300E+01 -0.5480E+01
  -0.5660E+01 -0.5840E+01 -0.6040E+01 -0.6230E+01 -0.6440E+01 -0.6640E+01 -0.6860E+01 -0.7080E+01 -0.7300E+01 -0.7530E+01
  -0.7770E+01 -0.8010E+01 -0.8250E+01 -0.8510E+01 -0.8760E+01 -0.9020E+01 -0.9280E+01 -0.9550E+01 -0.9820E+01 -0.1009E+02
  -0.1036E+02 -0.1063E+02 -0.1091E+02 -0.1118E+02 -0.1145E+02 -0.1172E+02 -0.1199E+02 -0.1225E+02 -0.1251E+02 -0.1276E+02
  -0.1300E+02 -0.1323E+02 -0.1346E+02 -0.1367E+02 -0.1387E+02 -0.1406E+02 -0.1423E+02 -0.1439E+02 -0.1453E+02 -0.1465E+02
  -0.1476E+02 -0.1485E+02 -0.1492E+02 -0.1496E+02 -0.1499E+02 -0.1500E+02 -0.1499E+02 -0.1496E+02 -0.1490E+02 -0.1485E+02
  -0.9600E+00
  -0.9100E+00 -0.9400E+00 -0.9700E+00 -0.9900E+00 -0.1020E+01 -0.1050E+01 -0.1070E+01 -0.1100E+01 -0.1130E+01 -0.1160E+01
  -0.1200E+01 -0.1230E+01 -0.1260E+01 -0.1300E+01 -0.1340E+01 -0.1370E+01 -0.1410E+01 -0.1450E+01 -0.1500E+01 -0.1540E+01
  -0.1580E+01 -0.1630E+01 -0.1680E+01 -0.1730E+01 -0.1780E+01 -0.1840E+01 -0.1890E+01 -0.1950E+01 -0.2010E+01 -0.2070E+01
  -0.2140E+01 -0.2200E+01 -0.2270E+01 -0.2340E+01 -0.2420E+01 -0.2490E+01 -0.2570E+01 -0.2660E+01 -0.2740E+01 -0.2830E+01
  -0.2920E+01 -0.3020E+01 -0.3120E+01 -0.3220E+01 -0.3330E+01 -0.3440E+01 -0.3550E+01 -0.3670E+01 -0.3790E+01 -0.3920E+01
  -0.4050E+01 -0.4190E+01 -0.4330E+01 -0.4480E+01 -0.4630E+01 -0.4790E+01 -0.4960E+01 -0.5130E+01 -0.5300E+01 -0.5480E+01
  -0.5670E+01 -0.5860E+01 -0.6060E+01 -0.6270E+01 -0.6480E+01 -0.6700E+01 -0.6920E+01 -0.7160E+01 -0.7390E+01 -0.7640E+01
  -0.7890E+01 -0.8150E+01 -0.8410E+01 -0.8680E+01 -0.8950E+01 -0.9230E+01 -0.9520E+01 -0.9810E+01 -0.1010E+02 -0.1039E+02
  -0.1069E+02 -0.1099E+02 -0.1129E+02 -0.1159E+02 -0.1189E+02 -0.1219E+02 -0.1249E+02 -0.1278E+02 -0.1307E+02 -0.1335E+02
  -0.1362E+02 -0.1389E+02 -0.1414E+02 -0.1438E+02 -0.1461E+02 -0.1482E+02 -0.1502E+02 -0.1520E+02 -0.1536E+02 -0.1550E+02
  -0.1562E+02 -0.1572E+02 -0.1580E+02 -0.1586E+02 -0.1589E+02 -0.1590E+02 -0.1588E+02 -0.1585E+02 -0.1579E+02 -0.1572E+02
  -0.9300E+00
  -0.8700E+00 -0.9000E+00 -0.9300E+00 -0.9500E+00 -0.9800E+00 -0.1000E+01 -0.1030E+01 -0.1060E+01 -0.1090E+01 -0.1120E+01
  -0.1150E+01 -0.1180E+01 -0.1220E+01 -0.1250E+01 -0.1290E+01 -0.1320E+01 -0.1360E+01 -0.1400E+01 -0.1440E+01 -0.1490E+01
  -0.1530E+01 -0.1580E+01 -0.1620E+01 -0.1670E+01 -0.1720E+01 -0.1780E+01 -0.1830E+01 -0.1890E+01 -0.1950E+01 -0.2010E+01
  -0.2070E+01 -0.2140E+01 -0.2210E+01 -0.2280E+01 -0.2350E+01 -0.2430E+01 -0.2510E+01 -0.2590E+01 -0.2680E+01 -0.2770E+01
  -0.2860E+01 -0.2950E+01 -0.3050E+01 -0.3160E+01 -0.3260E+01 -0.3380E+01 -0.3490E+01 -0.3610E+01 -0.3740E+01 -0.3870E+01
  -0.4000E+01 -0.4140E+01 -0.4290E+01 -0.4440E+01 -0.4590E+01 -0.4750E+01 -0.4920E+01 -0.5100E+01 -0.5280E+01 -0.5460E+01
  -0.5660E+01 -0.5860E+01 -0.6070E+01 -0.6280E+01 -0.6500E+01 -0.6730E+01 -0.6970E+01 -0.7210E+01 -0.7460E+01 -0.7720E+01
  -0.7990E+01 -0.8260E+01 -0.8540E+01 -0.8830E+01 -0.9120E+01 -0.9420E+01 -0.9730E+01 -0.1004E+02 -0.1036E+02 -0.1068E+02
  -0.1101E+02 -0.1134E+02 -0.1167E+02 -0.1200E+02 -0.1233E+02 -0.1267E+02 -0.1300E+02 -0.1332E+02 -0.1364E+02 -0.1396E+02
  -0.1426E+02 -0.1456E+02 -0.1485E+02 -0.1512E+02 -0.1538E+02 -0.1562E+02 -0.1585E+02 -0.1606E+02 -0.1624E+02 -0.1640E+02
  -0.1654E+02 -0.1666E+02 -0.1675E+02 -0.1681E+02 -0.1685E+02 -0.1686E+02 -0.1685E+02 -0.1680E+02 -0.1673E+02 -0.1666E+02
  -0.8900E+00
  -0.8300E+00 -0.8600E+00 -0.8800E+00 -0.9100E+00 -0.9300E+00 -0.9600E+00 -0.9900E+00 -0.1010E+01 -0.1040E+01 -0.1070E+01
  -0.1100E+01 -0.1130E+01 -0.1170E+01 -0.1200E+01 -0.1230E+01 -0.1270E+01 -0.1310E+01 -0.1350E+01 -0.1390E+01 -0.1430E+01
  -0.1470E+01 -0.1520E+01 -0.1560E+01 -0.1610E+01 -0.1660E+01 -0.1710E+01 -0.1770E+01 -0.1820E+01 -0.1880E+01 -0.1940E+01
  -0.2010E+01 -0.2070E+01 -0.2140E+01 -0.2210E+01 -0.2280E+01 -0.2360E+01 -0.2440E+01 -0.2520E+01 -0.2600E+01 -0.2690E+01
  -0.2780E+01 -0.2880E+01 -0.2980E+01 -0.3080E+01 -0.3190E+01 -0.3300E+01 -0.3420E+01 -0.3540E+01 -0.3660E+01 -0.3800E+01
  -0.3930E+01 -0.4070E+01 -0.4220E+01 -0.4370E+01 -0.4530E+01 -0.4700E+01 -0.4870E+01 -0.5050E+01 -0.5230E+01 -0.5420E+01
  -0.5620E+01 -0.5830E+01 -0.6050E+01 -0.6270E+01 -0.6500E+01 -0.6740E+01 -0.6980E+01 -0.7240E+01 -0.7500E+01 -0.7780E+01
  -0.8060E+01 -0.8350E+01 -0.8650E+01 -0.8950E+01 -0.9270E+01 -0.9590E+01 -0.9920E+01 -0.1026E+02 -0.1060E+02 -0.1095E+02
  -0.1131E+02 -0.1167E+02 -0.1203E+02 -0.1240E+02 -0.1276E+02 -0.1313E+02 -0.1350E+02 -0.1386E+02 -0.1422E+02 -0.1458E+02
  -0.1492E+02 -0.1526E+02 -0.1559E+02 -0.1590E+02 -0.1619E+02 -0.1647E+02 -0.1673E+02 -0.1697E+02 -0.1718E+02 -0.1737E+02
  -0.1753E+02 -0.1766E+02 -0.1777E+02 -0.1784E+02 -0.1789E+02 -0.1790E+02 -0.1788E+02 -0.1783E+02 -0.1775E+02 -0.1766E+02
  -0.8500E+00
  -0.7900E+00 -0.8200E+00 -0.8400E+00 -0.8600E+00 -0.8900E+00 -0.9100E+00 -0.9400E+00 -0.9700E+00 -0.9900E+00 -0.1020E+01
  -0.1050E+01 -0.1080E+01 -0.1110E+01 -0.1150E+01 -0.1180E+01 -0.1210E+01 -0.1250E+01 -0.1290E+01 -0.1330E+01 -0.1370E+01
  -0.1410E+01 -0.1450E+01 -0.1500E+01 -0.1550E+01 -0.1600E+01 -0.1650E+01 -0.1700E+01 -0.1750E+01 -0.1810E+01 -0.1870E+01
  -0.1930E+01 -0.1990E+01 -0.2060E+01 -0.2130E+01 -0.2200E+01 -0.2280E+01 -0.2350E+01 -0.2430E+01 -0.2520E+01 -0.2610E+01
  -0.2700E+01 -0.2790E+01 -0.2890E+01 -0.2990E+01 -0.3100E+01 -0.3210E+01 -0.3330E+01 -0.3450E+01 -0.3580E+01 -0.3710E+01
  -0.3840E+01 -0.3990E+01 -0.4130E+01 -0.4290E+01 -0.4450E+01 -0.4620E+01 -0.4790E+01 -0.4970E+01 -0.5160E+01 -0.5360E+01
  -0.5560E+01 -0.5780E+01 -0.6000E+01 -0.6230E+01 -0.6460E+01 -0.6710E+01 -0.6970E+01 -0.7240E+01 -0.7510E+01 -0.7800E+01
  -0.8090E+01 -0.8400E+01 -0.8710E+01 -0.9040E+01 -0.9370E+01 -0.9720E+01 -0.1007E+02 -0.1044E+02 -0.1081E+02 -0.1119E+02
  -0.1157E+02 -0.1197E+02 -0.1236E+02 -0.1277E+02 -0.1317E+02 -0.1358E+02 -0.1399E+02 -0.1440E+02 -0.1480E+02 -0.1520E+02
  -0.1559E+02 -0.1597E+02 -0.1634E+02 -0.1670E+02 -0.1704E+02 -0.1736E+02 -0.1766E+02 -0.1793E+02 -0.1818E+02 -0.1839E+02
  -0.1858E+02 -0.1874E+02 -0.1886E+02 -0.1895E+02 -0.1900E+02 -0.1901E+02 -0.1899E+02 -0.1893E+02 -0.1883E+02 -0.1874E+02
  -0.8100E+00
  -0.7500E+00 -0.7700E+00 -0.8000E+00 -0.8200E+00 -0.8400E+00 -0.8600E+00 -0.8900E+00 -0.9200E+00 -0.9400E+00 -0.9700E+00
  -0.1000E+01 -0.1030E+01 -0.1060E+01 -0.1090E+01 -0.1120E+01 -0.1150E+01 -0.1190E+01 -0.1230E+01 -0.1260E+01 -0.1300E+01
  -0.1340E+01 -0.1390E+01 -0.1430E+01 -0.1480E+01 -0.1520E+01 -0.1570E+01 -0.1620E+01 -0.1680E+01 -0.1730E+01 -0.1790E+01
  -0.1850E+01 -0.1910E+01 -0.1980E+01 -0.2040E+01 -0.2110E+01 -0.2190E+01 -0.2260E+01 -0.2340E+01 -0.2420E+01 -0.2510E+01
  -0.2600E+01 -0.2690E+01 -0.2790E+01 -0.2890E+01 -0.3000E+01 -0.3110E+01 -0.3220E+01 -0.3350E+01 -0.3470E+01 -0.3600E+01
  -0.3740E+01 -0.3880E+01 -0.4030E+01 -0.4180E+01 -0.4350E+01 -0.4510E+01 -0.4690E+01 -0.4870E+01 -0.5070E+01 -0.5270E+01
  -0.5470E+01 -0.5690E+01 -0.5920E+01 -0.6150E+01 -0.6400E+01 -0.6650E+01 -0.6920E+01 -0.7190E+01 -0.7480E+01 -0.7780E+01
  -0.8090E+01 -0.8410E+01 -0.8740E+01 -0.9080E+01 -0.9440E+01 -0.9810E+01 -0.1018E+02 -0.1057E+02 -0.1097E+02 -0.1138E+02
  -0.1180E+02 -0.1223E+02 -0.1266E+02 -0.1311E+02 -0.1355E+02 -0.1401E+02 -0.1446E+02 -0.1491E+02 -0.1537E+02 -0.1582E+02
  -0.1626E+02 -0.1669E+02 -0.1712E+02 -0.1752E+02 -0.1791E+02 -0.1828E+02 -0.1863E+02 -0.1894E+02 -0.1923E+02 -0.1949E+02
  -0.1971E+02 -0.1989E+02 -0.2003E+02 -0.2013E+02 -0.2019E+02 -0.2021E+02 -0.2018E+02 -0.2011E+02 -0.2000E+02 -0.1988E+02
  -0.7700E+00
  -0.7000E+00 -0.7300E+00 -0.7500E+00 -0.7700E+00 -0.7900E+00 -0.8100E+00 -0.8400E+00 -0.8600E+00 -0.8900E+00 -0.9100E+00
  -0.9400E+00 -0.9700E+00 -0.1000E+01 -0.1030E+01 -0.1060E+01 -0.1090E+01 -0.1130E+01 -0.1160E+01 -0.1200E+01 -0.1230E+01
  -0.1270E+01 -0.1310E+01 -0.1360E+01 -0.1400E+01 -0.1450E+01 -0.1490E+01 -0.1540E+01 -0.1590E+01 -0.1650E+01 -0.1700E+01
  -0.1760E+01 -0.1820E+01 -0.1880E+01 -0.1950E+01 -0.2020E+01 -0.2090E+01 -0.2160E+01 -0.2240E+01 -0.2320E+01 -0.2400E+01
  -0.2490E+01 -0.2580E+01 -0.2680E+01 -0.2780E+01 -0.2880E+01 -0.2990E+01 -0.3110E+01 -0.3220E+01 -0.3350E+01 -0.3480E+01
  -0.3610E+01 -0.3750E+01 -0.3900E+01 -0.4060E+01 -0.4220E+01 -0.4390E+01 -0.4560E+01 -0.4750E+01 -0.4940E+01 -0.5140E+01
  -0.5350E+01 -0.5570E+01 -0.5800E+01 -0.6040E+01 -0.6290E+01 -0.6550E+01 -0.6830E+01 -0.7110E+01 -0.7410E+01 -0.7710E+01
  -0.8040E+01 -0.8370E+01 -0.8720E+01 -0.9080E+01 -0.9450E+01 -0.9840E+01 -0.1024E+02 -0.1065E+02 -0.1108E+02 -0.1152E+02
  -0.1198E+02 -0.1244E+02 -0.1291E+02 -0.1340E+02 -0.1389E+02 -0.1439E+02 -0.1490E+02 -0.1540E+02 -0.1591E+02 -0.1642E+02
  -0.1692E+02 -0.1741E+02 -0.1790E+02 -0.1836E+02 -0.1881E+02 -0.1924E+02 -0.1964E+02 -0.2001E+02 -0.2035E+02 -0.2065E+02
  -0.2090E+02 -0.2112E+02 -0.2129E+02 -0.2141E+02 -0.2148E+02 -0.2150E+02 -0.2146E+02 -0.2138E+02 -0.2125E+02 -0.2111E+02
  -0.7300E+00
  -0.6600E+00 -0.6800E+00 -0.7000E+00 -0.7200E+00 -0.7400E+00 -0.7600E+00 -0.7900E+00 -0.8100E+00 -0.8300E+00 -0.8600E+00
  -0.8800E+00 -0.9100E+00 -0.9400E+00 -0.9700E+00 -0.1000E+01 -0.1030E+01 -0.1060E+01 -0.1090E+01 -0.1130E+01 -0.1160E+01
[...]
   0.0000E+00
   0.0000E+00  0.0000E+00  0.0000E+00  0.0000E+00  0.0000E+00  0.0000E+00  0.0000E+00  0.0000E+00  0.0000E+00  0.0000E+00
   0.0000E+00  0.0000E+00  0.0000E+00  0.0000E+00  0.0000E+00  0.0000E+00  0.0000E+00  0.0000E+00  0.0000E+00  0.0000E+00
   0.0000E+00  0.0000E+00  0.0000E+00  0.0000E+00  0.0000E+00  0.0000E+00  0.0000E+00  0.0000E+00  0.0000E+00  0.0000E+00
   0.0000E+00  0.0000E+00  0.0000E+00  0.0000E+00  0.0000E+00  0.0000E+00  0.0000E+00  0.0000E+00  0.0000E+00  0.0000E+00
   0.0000E+00  0.0000E+00  0.0000E+00  0.0000E+00  0.0000E+00  0.0000E+00  0.0000E+00  0.0000E+00  0.0000E+00  0.0000E+00
   0.0000E+00  0.0000E+00  0.0000E+00  0.0000E+00  0.0000E+00  0.0000E+00  0.0000E+00  0.0000E+00  0.0000E+00  0.0000E+00
   0.0000E+00  0.0000E+00  0.0000E+00  0.0000E+00  0.0000E+00  0.0000E+00  0.0000E+00  0.0000E+00  0.0000E+00  0.0000E+00
   0.0000E+00  0.0000E+00  0.0000E+00  0.0000E+00  0.0000E+00  0.0000E+00  0.0000E+00  0.0000E+00  0.0000E+00  0.0000E+00
   0.0000E+00  0.0000E+00  0.0000E+00  0.0000E+00  0.0000E+00  0.0000E+00  0.0000E+00  0.0000E+00  0.0000E+00  0.0000E+00
   0.0000E+00  0.0000E+00  0.0000E+00  0.0000E+00  0.0000E+00  0.0000E+00  0.0000E+00  0.0000E+00  0.0000E+00  0.0000E+00
   0.0000E+00  0.0000E+00  0.0000E+00  0.0000E+00  0.0000E+00  0.0000E+00  0.0000E+00  0.0000E+00  0.0000E+00  0.0000E+00
   0.0000E+00
   0.0000E+00  0.0000E+00  0.0000E+00  0.0000E+00  0.0000E+00  0.0000E+00  0.0000E+00  0.0000E+00  0.0000E+00  0.0000E+00
   0.0000E+00  0.0000E+00  0.0000E+00  0.0000E+00  0.0000E+00  0.0000E+00  0.0000E+00  0.0000E+00  0.0000E+00  0.0000E+00
   0.0000E+00  0.0000E+00  0.0000E+00  0.0000E+00  0.0000E+00  0.0000E+00  0.0000E+00  0.0000E+00  0.0000E+00  0.0000E+00
   0.0000E+00  0.0000E+00  0.0000E+00  0.0000E+00  0.0000E+00  0.0000E+00  0.0000E+00  0.0000E+00  0.0000E+00  0.0000E+00
   0.0000E+00  0.0000E+00  0.0000E+00  0.0000E+00  0.0000E+00  0.0000E+00  0.0000E+00  0.0000E+00  0.0000E+00  0.0000E+00
   0.0000E+00  0.0000E+00  0.0000E+00  0.0000E+00  0.0000E+00  0.0000E+00  0.0000E+00  0.0000E+00  0.0000E+00  0.0000E+00
   0.0000E+00  0.0000E+00  0.0000E+00  0.0000E+00  0.0000E+00  0.0000E+00  0.0000E+00  0.0000E+00  0.0000E+00  0.0000E+00
   0.0000E+00  0.0000E+00  0.0000E+00  0.0000E+00  0.0000E+00  0.0000E+00  0.0000E+00  0.0000E+00  0.0000E+00  0.0000E+00
   0.0000E+00  0.0000E+00  0.0000E+00  0.0000E+00  0.0000E+00  0.0000E+00  0.0000E+00  0.0000E+00  0.0000E+00  0.0000E+00
   0.0000E+00  0.0000E+00  0.0000E+00  0.0000E+00  0.0000E+00  0.0000E+00  0.0000E+00  0.0000E+00  0.0000E+00  0.0000E+00
   0.0000E+00  0.0000E+00  0.0000E+00  0.0000E+00  0.0000E+00  0.0000E+00  0.0000E+00  0.0000E+00  0.0000E+00  0.0000E+00
   0.0000E+00
   0.0000E+00  0.0000E+00  0.0000E+00  0.0000E+00  0.0000E+00  0.0000E+00  0.0000E+00  0.0000E+00  0.0000E+00  0.0000E+00
   0.0000E+00  0.0000E+00  0.0000E+00  0.0000E+00  0.0000E+00  0.0000E+00  0.0000E+00  0.0000E+00  0.0000E+00  0.0000E+00
   0.0000E+00  0.0000E+00  0.0000E+00  0.0000E+00  0.0000E+00  0.0000E+00  0.0000E+00  0.0000E+00  0.0000E+00  0.0000E+00
   0.0000E+00  0.0000E+00  0.0000E+00  0.0000E+00  0.0000E+00  0.0000E+00  0.0000E+00  0.0000E+00  0.0000E+00  0.0000E+00
   0.0000E+00  0.0000E+00  0.0000E+00  0.0000E+00  0.0000E+00  0.0000E+00  0.0000E+00  0.0000E+00  0.0000E+00  0.0000E+00
   0.0000E+00  0.0000E+00  0.0000E+00  0.0000E+00  0.0000E+00  0.0000E+00  0.0000E+00  0.0000E+00  0.0000E+00  0.0000E+00
   0.0000E+00  0.0000E+00  0.0000E+00  0.0000E+00  0.0000E+00  0.0000E+00  0.0000E+00  0.0000E+00  0.0000E+00  0.0000E+00
   0.0000E+00  0.0000E+00  0.0000E+00  0.0000E+00  0.0000E+00  0.0000E+00  0.0000E+00  0.0000E+00  0.0000E+00  0.0000E+00
   0.0000E+00  0.0000E+00  0.0000E+00  0.0000E+00  0.0000E+00  0.0000E+00  0.0000E+00  0.0000E+00  0.0000E+00  0.0000E+00
   0.0000E+00  0.0000E+00  0.0000E+00  0.0000E+00  0.0000E+00  0.0000E+00  0.0000E+00  0.0000E+00  0.0000E+00  0.0000E+00
   0.0000E+00  0.0000E+00  0.0000E+00  0.0000E+00  0.0000E+00  0.0000E+00  0.0000E+00  0.0000E+00  0.0000E+00  0.0000E+00
   0.0000E+00
   0.0000E+00  0.0000E+00  0.0000E+00  0.0000E+00  0.0000E+00  0.0000E+00  0.0000E+00  0.0000E+00  0.0000E+00  0.0000E+00
   0.0000E+00  0.0000E+00  0.0000E+00  0.0000E+00  0.0000E+00  0.0000E+00  0.0000E+00  0.0000E+00  0.0000E+00  0.0000E+00
   0.0000E+00  0.0000E+00  0.0000E+00  0.0000E+00  0.0000E+00  0.0000E+00  0.0000E+00  0.0000E+00  0.0000E+00  0.0000E+00
   0.0000E+00  0.0000E+00  0.0000E+00  0.0000E+00  0.0000E+00  0.0000E+00  0.0000E+00  0.0000E+00  0.0000E+00  0.0000E+00
   0.0000E+00  0.0000E+00  0.0000E+00  0.0000E+00  0.0000E+00  0.0000E+00  0.0000E+00  0.0000E+00  0.0000E+00  0.0000E+00
   0.0000E+00  0.0000E+00  0.0000E+00  0.0000E+00  0.0000E+00  0.0000E+00  0.0000E+00  0.0000E+00  0.0000E+00  0.0000E+00
   0.0000E+00  0.0000E+00  0.0000E+00  0.0000E+00  0.0000E+00  0.0000E+00  0.0000E+00  0.0000E+00  0.0000E+00  0.0000E+00
   0.0000E+00  0.0000E+00  0.0000E+00  0.0000E+00  0.0000E+00  0.0000E+00  0.0000E+00  0.0000E+00  0.0000E+00  0.0000E+00
   0.0000E+00  0.0000E+00  0.0000E+00  0.0000E+00  0.0000E+00  0.0000E+00  0.0000E+00  0.0000E+00  0.0000E+00  0.0000E+00
   0.0000E+00  0.0000E+00  0.0000E+00  0.0000E+00  0.0000E+00  0.0000E+00  0.0000E+00  0.0000E+00  0.0000E+00  0.0000E+00
   0.0000E+00  0.0000E+00  0.0000E+00  0.0000E+00  0.0000E+00  0.0000E+00  0.0000E+00  0.0000E+00  0.0000E+00  0.0000E+00
   0.0000E+00
   0.0000E+00  0.0000E+00  0.0000E+00  0.0000E+00  0.0000E+00  0.0000E+00  0.0000E+00  0.0000E+00  0.0000E+00  0.0000E+00
   0.0000E+00  0.0000E+00  0.0000E+00  0.0000E+00  0.0000E+00  0.0000E+00  0.0000E+00  0.0000E+00  0.0000E+00  0.0000E+00
   0.0000E+00  0.0000E+00  0.0000E+00  0.0000E+00  0.0000E+00  0.0000E+00  0.0000E+00  0.0000E+00  0.0000E+00  0.0000E+00
   0.0000E+00  0.0000E+00  0.0000E+00  0.0000E+00  0.0000E+00  0.0000E+00  0.0000E+00  0.0000E+00  0.0000E+00  0.0000E+00
   0.0000E+00  0.0000E+00  0.0000E+00  0.0000E+00  0.0000E+00  0.0000E+00  0.0000E+00  0.0000E+00  0.0000E+00  0.0000E+00
   0.0000E+00  0.0000E+00  0.0000E+00  0.0000E+00  0.0000E+00  0.0000E+00  0.0000E+00  0.0000E+00  0.0000E+00  0.0000E+00
   0.0000E+00  0.0000E+00  0.0000E+00  0.0000E+00  0.0000E+00  0.0000E+00  0.0000E+00  0.0000E+00  0.0000E+00  0.0000E+00
   0.0000E+00  0.0000E+00  0.0000E+00  0.0000E+00  0.0000E+00  0.0000E+00  0.0000E+00  0.0000E+00  0.0000E+00  0.0000E+00
   0.0000E+00  0.0000E+00  0.0000E+00  0.0000E+00  0.0000E+00  0.0000E+00  0.0000E+00  0.0000E+00  0.0000E+00  0.0000E+00
   0.0000E+00  0.0000E+00  0.0000E+00  0.0000E+00  0.0000E+00  0.0000E+00  0.0000E+00  0.0000E+00  0.0000E+00  0.0000E+00
   0.0000E+00  0.0000E+00  0.0000E+00  0.0000E+00  0.0000E+00  0.0000E+00  0.0000E+00  0.0000E+00  0.0000E+00  0.0000E+00
   0.0000E+00
   0.0000E+00  0.0000E+00  0.0000E+00  0.0000E+00  0.0000E+00  0.0000E+00  0.0000E+00  0.0000E+00  0.0000E+00  0.0000E+00
   0.0000E+00  0.0000E+00  0.0000E+00  0.0000E+00  0.0000E+00  0.0000E+00  0.0000E+00  0.0000E+00  0.0000E+00  0.0000E+00
   0.0000E+00  0.0000E+00  0.0000E+00  0.0000E+00  0.0000E+00  0.0000E+00  0.0000E+00  0.0000E+00  0.0000E+00  0.0000E+00
   0.0000E+00  0.0000E+00  0.0000E+00  0.0000E+00  0.0000E+00  0.0000E+00  0.0000E+00  0.0000E+00  0.0000E+00  0.0000E+00
   0.0000E+00  0.0000E+00  0.0000E+00  0.0000E+00  0.0000E+00  0.0000E+00  0.0000E+00  0.0000E+00  0.0000E+00  0.0000E+00
   0.0000E+00  0.0000E+00  0.0000E+00  0.0000E+00  0.0000E+00  0.0000E+00  0.0000E+00  0.0000E+00  0.0000E+00  0.0000E+00
   0.0000E+00  0.0000E+00  0.0000E+00  0.0000E+00  0.0000E+00  0.0000E+00  0.0000E+00  0.0000E+00  0.0000E+00  0.0000E+00
   0.0000E+00  0.0000E+00  0.0000E+00  0.0000E+00  0.0000E+00  0.0000E+00  0.0000E+00  0.0000E+00  0.0000E+00  0.0000E+00
   0.0000E+00  0.0000E+00  0.0000E+00  0.0000E+00  0.0000E+00  0.0000E+00  0.0000E+00  0.0000E+00  0.0000E+00  0.0000E+00
   0.0000E+00  0.0000E+00  0.0000E+00  0.0000E+00  0.0000E+00  0.0000E+00  0.0000E+00  0.0000E+00  0.0000E+00  0.0000E+00
   0.0000E+00  0.0000E+00  0.0000E+00  0.0000E+00  0.0000E+00  0.0000E+00  0.0000E+00  0.0000E+00  0.0000E+00  0.0000E+00
   0.0000E+00
   0.0000E+00  0.0000E+00  0.0000E+00  0.0000E+00  0.0000E+00  0.0000E+00  0.0000E+00  0.0000E+00  0.0000E+00  0.0000E+00
   0.0000E+00  0.0000E+00  0.0000E+00  0.0000E+00  0.0000E+00  0.0000E+00  0.0000E+00  0.0000E+00  0.0000E+00  0.0000E+00
   0.0000E+00  0.0000E+00  0.0000E+00  0.0000E+00  0.0000E+00  0.0000E+00  0.0000E+00  0.0000E+00  0.0000E+00  0.0000E+00
   0.0000E+00  0.0000E+00  0.0000E+00  0.0000E+00  0.0000E+00  0.0000E+00  0.0000E+00  0.0000E+00  0.0000E+00  0.0000E+00
   0.0000E+00  0.0000E+00  0.0000E+00  0.0000E+00  0.0000E+00  0.0000E+00  0.0000E+00  0.0000E+00  0.0000E+00  0.0000E+00
   0.0000E+00  0.0000E+00  0.0000E+00  0.0000E+00  0.0000E+00  0.0000E+00  0.0000E+00  0.0000E+00  0.0000E+00  0.0000E+00
   0.0000E+00  0.0000E+00  0.0000E+00  0.0000E+00  0.0000E+00  0.0000E+00  0.0000E+00  0.0000E+00  0.0000E+00  0.0000E+00
   0.0000E+00  0.0000E+00  0.0000E+00  0.0000E+00  0.0000E+00  0.0000E+00  0.0000E+00  0.0000E+00  0.0000E+00  0.0000E+00
   0.0000E+00  0.0000E+00  0.0000E+00  0.0000E+00  0.0000E+00  0.0000E+00  0.0000E+00  0.0000E+00  0.0000E+00  0.0000E+00
   0.0000E+00  0.0000E+00  0.0000E+00  0.0000E+00  0.0000E+00  0.0000E+00  0.0000E+00  0.0000E+00  0.0000E+00  0.0000E+00
   0.0000E+00  0.0000E+00  0.0000E+00  0.0000E+00  0.0000E+00  0.0000E+00  0.0000E+00  0.0000E+00  0.0000E+00  0.0000E+00
   0.0000E+00
   0.0000E+00  0.0000E+00  0.0000E+00  0.0000E+00  0.0000E+00  0.0000E+00  0.0000E+00  0.0000E+00  0.0000E+00  0.0000E+00
   0.0000E+00  0.0000E+00  0.0000E+00  0.0000E+00  0.0000E+00  0.0000E+00  0.0000E+00  0.0000E+00  0.0000E+00  0.0000E+00
   0.0000E+00  0.0000E+00  0.0000E+00  0.0000E+00  0.0000E+00  0.0000E+00  0.0000E+00  0.0000E+00  0.0000E+00  0.0000E+00
   0.0000E+00  0.0000E+00  0.0000E+00  0.0000E+00  0.0000E+00  0.0000E+00  0.0000E+00  0.0000E+00  0.0000E+00  0.0000E+00
   0.0000E+00  0.0000E+00  0.0000E+00  0.0000E+00  0.0000E+00  0.0000E+00  0.0000E+00  0.0000E+00  0.0000E+00  0.0000E+00
   0.0000E+00  0.0000E+00  0.0000E+00  0.0000E+00  0.0000E+00  0.0000E+00  0.0000E+00  0.0000E+00  0.0000E+00  0.0000E+00
   0.0000E+00  0.0000E+00  0.0000E+00  0.0000E+00  0.0000E+00  0.0000E+00  0.0000E+00  0.0000E+00  0.0000E+00  0.0000E+00
   0.0000E+00  0.0000E+00  0.0000E+00  0.0000E+00  0.0000E+00  0.0000E+00  0.0000E+00  0.0000E+00  0.0000E+00  0.0000E+00
   0.0000E+00  0.0000E+00  0.0000E+00  0.0000E+00  0.0000E+00  0.0000E+00  0.0000E+00  0.0000E+00  0.0000E+00  0.0000E+00
   0.0000E+00  0.0000E+00  0.0000E+00  0.0000E+00  0.0000E+00  0.0000E+00  0.0000E+00  0.0000E+00  0.0000E+00  0.0000E+00
   0.0000E+00  0.0000E+00  0.0000E+00  0.0000E+00  0.0000E+00  0.0000E+00  0.0000E+00  0.0000E+00  0.0000E+00  0.0000E+00
   0.0000E+00
   0.0000E+00  0.0000E+00  0.0000E+00  0.0000E+00  0.0000E+00  0.0000E+00  0.0000E+00  0.0000E+00  0.0000E+00  0.0000E+00
   0.0000E+00  0.0000E+00  0.0000E+00  0.0000E+00  0.0000E+00  0.0000E+00  0.0000E+00  0.0000E+00  0.0000E+00  0.0000E+00
   0.0000E+00  0.0000E+00  0.0000E+00  0.0000E+00  0.0000E+00  0.0000E+00  0.0000E+00  0.0000E+00  0.0000E+00  0.0000E+00
   0.0000E+00  0.0000E+00  0.0000E+00  0.0000E+00  0.0000E+00  0.0000E+00  0.0000E+00  0.0000E+00  0.0000E+00  0.0000E+00
   0.0000E+00  0.0000E+00  0.0000E+00  0.0000E+00  0.0000E+00  0.0000E+00  0.0000E+00  0.0000E+00  0.0000E+00  0.0000E+00
   0.0000E+00  0.0000E+00  0.0000E+00  0.0000E+00  0.0000E+00  0.0000E+00  0.0000E+00  0.0000E+00  0.0000E+00  0.0000E+00
   0.0000E+00  0.0000E+00  0.0000E+00  0.0000E+00  0.0000E+00  0.0000E+00  0.0000E+00  0.0000E+00  0.0000E+00  0.0000E+00
   0.0000E+00  0.0000E+00  0.0000E+00  0.0000E+00  0.0000E+00  0.0000E+00  0.0000E+00  0.0000E+00  0.0000E+00  0.0000E+00
   0.0000E+00  0.0000E+00  0.0000E+00  0.0000E+00  0.0000E+00  0.0000E+00  0.0000E+00  0.0000E+00  0.0000E+00  0.0000E+00
   0.0000E+00  0.0000E+00  0.0000E+00  0.0000E+00  0.0000E+00  0.0000E+00  0.0000E+00  0.0000E+00  0.0000E+00  0.0000E+00
   0.0000E+00  0.0000E+00  0.0000E+00  0.0000E+00  0.0000E+00  0.0000E+00  0.0000E+00  0.0000E+00  0.0000E+00  0.0000E+00
   0.0000E+00
   0.0000E+00  0.0000E+00  0.0000E+00  0.0000E+00  0.0000E+00  0.0000E+00  0.0000E+00  0.0000E+00  0.0000E+00  0.0000E+00
   0.0000E+00  0.0000E+00  0.0000E+00  0.0000E+00  0.0000E+00  0.0000E+00  0.0000E+00  0.0000E+00  0.0000E+00  0.0000E+00
   0.0000E+00  0.0000E+00  0.0000E+00  0.0000E+00  0.0000E+00  0.0000E+00  0.0000E+00  0.0000E+00  0.0000E+00  0.0000E+00
   0.0000E+00  0.0000E+00  0.0000E+00  0.0000E+00  0.0000E+00  0.0000E+00  0.0000E+00  0.0000E+00  0.0000E+00  0.0000E+00
   0.0000E+00  0.0000E+00  0.0000E+00  0.0000E+00  0.0000E+00  0.0000E+00  0.0000E+00  0.0000E+00  0.0000E+00  0.0000E+00
   0.0000E+00  0.0000E+00  0.0000E+00  0.0000E+00  0.0000E+00  0.0000E+00  0.0000E+00  0.0000E+00  0.0000E+00  0.0000E+00
   0.0000E+00  0.0000E+00  0.0000E+00  0.0000E+00  0.0000E+00  0.0000E+00  0.0000E+00  0.0000E+00  0.0000E+00  0.0000E+00
   0.0000E+00  0.0000E+00  0.0000E+00  0.0000E+00  0.0000E+00  0.0000E+00  0.0000E+00  0.0000E+00  0.0000E+00  0.0000E+00
   0.0000E+00  0.0000E+00  0.0000E+00  0.0000E+00  0.0000E+00  0.0000E+00  0.0000E+00  0.0000E+00  0.0000E+00  0.0000E+00
   0.0000E+00  0.0000E+00  0.0000E+00  0.0000E+00  0.0000E+00  0.0000E+00  0.0000E+00  0.0000E+00  0.0000E+00  0.0000E+00
   0.0000E+00  0.0000E+00  0.0000E+00  0.0000E+00  0.0000E+00  0.0000E+00  0.0000E+00  0.0000E+00  0.0000E+00  0.0000E+00
   0.0000E+00
   0.0000E+00  0.0000E+00  0.0000E+00  0.0000E+00  0.0000E+00  0.0000E+00  0.0000E+00  0.0000E+00  0.0000E+00  0.0000E+00
   0.0000E+00  0.0000E+00  0.0000E+00  0.0000E+00  0.0000E+00  0.0000E+00  0.0000E+00  0.0000E+00  0.0000E+00  0.0000E+00
   0.0000E+00  0.0000E+00  0.0000E+00  0.0000E+00  0.0000E+00  0.0000E+00  0.0000E+00  0.0000E+00  0.0000E+00  0.0000E+00
   0.0000E+00  0.0000E+00  0.0000E+00  0.0000E+00  0.0000E+00  0.0000E+00  0.0000E+00  0.0000E+00  0.0000E+00  0.0000E+00
   0.0000E+00  0.0000E+00  0.0000E+00  0.0000E+00  0.0000E+00  0.0000E+00  0.0000E+00  0.0000E+00  0.0000E+00  0.0000E+00
   0.0000E+00  0.0000E+00  0.0000E+00  0.0000E+00  0.0000E+00  0.0000E+00  0.0000E+00  0.0000E+00  0.0000E+00  0.0000E+00
   0.0000E+00  0.0000E+00  0.0000E+00  0.0000E+00  0.0000E+00  0.0000E+00  0.0000E+00  0.0000E+00  0.0000E+00  0.0000E+00
   0.0000E+00  0.0000E+00  0.0000E+00  0.0000E+00  0.0000E+00  0.0000E+00  0.0000E+00  0.0000E+00  0.0000E+00  0.0000E+00
   0.0000E+00  0.0000E+00  0.0000E+00  0.0000E+00  0.0000E+00  0.0000E+00  0.0000E+00  0.0000E+00  0.0000E+00  0.0000E+00
   0.0000E+00  0.0000E+00  0.0000E+00  0.0000E+00  0.0000E+00  0.0000E+00  0.0000E+00  0.0000E+00  0.0000E+00  0.0000E+00
   0.0000E+00  0.0000E+00  0.0000E+00  0.0000E+00  0.0000E+00  0.0000E+00  0.0000E+00  0.0000E+00  0.0000E+00  0.0000E+00
   0.0000E+00
   0.0000E+00  0.0000E+00  0.0000E+00  0.0000E+00  0.0000E+00  0.0000E+00  0.0000E+00  0.0000E+00  0.0000E+00  0.0000E+00
   0.0000E+00  0.0000E+00  0.0000E+00  0.0000E+00  0.0000E+00  0.0000E+00  0.0000E+00  0.0000E+00  0.0000E+00  0.0000E+00
   0.0000E+00  0.0000E+00  0.0000E+00  0.0000E+00  0.0000E+00  0.0000E+00  0.0000E+00  0.0000E+00  0.0000E+00  0.0000E+00
   0.0000E+00  0.0000E+00  0.0000E+00  0.0000E+00  0.0000E+00  0.0000E+00  0.0000E+00  0.0000E+00  0.0000E+00  0.0000E+00
   0.0000E+00  0.0000E+00  0.0000E+00  0.0000E+00  0.0000E+00  0.0000E+00  0.0000E+00  0.0000E+00  0.0000E+00  0.0000E+00
   0.0000E+00  0.0000E+00  0.0000E+00  0.0000E+00  0.0000E+00  0.0000E+00  0.0000E+00  0.0000E+00  0.0000E+00  0.0000E+00
   0.0000E+00  0.0000E+00  0.0000E+00  0.0000E+00  0.0000E+00  0.0000E+00  0.0000E+00  0.0000E+00  0.0000E+00  0.0000E+00
   0.0000E+00  0.0000E+00  0.0000E+00  0.0000E+00  0.0000E+00  0.0000E+00  0.0000E+00  0.0000E+00  0.0000E+00  0.0000E+00
   0.0000E+00  0.0000E+00  0.0000E+00  0.0000E+00  0.0000E+00  0.0000E+00  0.0000E+00  0.0000E+00  0.0000E+00  0.0000E+00
   0.0000E+00  0.0000E+00  0.0000E+00  0.0000E+00  0.0000E+00  0.0000E+00  0.0000E+00  0.0000E+00  0.0000E+00  0.0000E+00
   0.0000E+00  0.0000E+00  0.0000E+00  0.0000E+00  0.0000E+00  0.0000E+00  0.0000E+00  0.0000E+00  0.0000E+00  0.0000E+00
   0.0000E+00
   0.0000E+00  0.0000E+00  0.0000E+00  0.0000E+00  0.0000E+00  0.0000E+00  0.0000E+00  0.0000E+00  0.0000E+00  0.0000E+00
   0.0000E+00  0.0000E+00  0.0000E+00  0.0000E+00  0.0000E+00  0.0000E+00  0.0000E+00  0.0000E+00  0.0000E+00  0.0000E+00
   0.0000E+00  0.0000E+00  0.0000E+00  0.0000E+00  0.0000E+00  0.0000E+00  0.0000E+00  0.0000E+00  0.0000E+00  0.0000E+00
   0.0000E+00  0.0000E+00  0.0000E+00  0.0000E+00  0.0000E+00  0.0000E+00  0.0000E+00  0.0000E+00  0.0000E+00  0.0000E+00
   0.0000E+00  0.0000E+00  0.0000E+00  0.0000E+00  0.0000E+00  0.0000E+00  0.0000E+00  0.0000E+00  0.0000E+00  0.0000E+00
   0.0000E+00  0.0000E+00  0.0000E+00  0.0000E+00  0.0000E+00  0.0000E+00  0.0000E+00  0.0000E+00  0.0000E+00  0.0000E+00
   0.0000E+00  0.0000E+00  0.0000E+00  0.0000E+00  0.0000E+00  0.0000E+00  0.0000E+00  0.0000E+00  0.0000E+00  0.0000E+00
   0.0000E+00  0.0000E+00  0.0000E+00  0.0000E+00  0.0000E+00  0.0000E+00  0.0000E+00  0.0000E+00  0.0000E+00  0.0000E+00
   0.0000E+00  0.0000E+00  0.0000E+00  0.0000E+00  0.0000E+00  0.0000E+00  0.0000E+00  0.0000E+00  0.0000E+00  0.0000E+00
   0.0000E+00  0.0000E+00  0.0000E+00  0.0000E+00  0.0000E+00  0.0000E+00  0.0000E+00  0.0000E+00  0.0000E+00  0.0000E+00
   0.0000E+00  0.0000E+00  0.0000E+00  0.0000E+00  0.0000E+00  0.0000E+00  0.0000E+00  0.0000E+00  0.0000E+00  0.0000E+00
   0.0000E+00
   0.0000E+00  0.0000E+00  0.0000E+00  0.0000E+00  0.0000E+00  0.0000E+00  0.0000E+00  0.0000E+00  0.0000E+00  0.0000E+00
   0.0000E+00  0.0000E+00  0.0000E+00  0.0000E+00  0.0000E+00  0.0000E+00  0.0000E+00  0.0000E+00  0.0000E+00  0.0000E+00
   0.0000E+00  0.0000E+00  0.0000E+00  0.0000E+00  0.0000E+00  0.0000E+00  0.0000E+00  0.0000E+00  0.0000E+00  0.0000E+00
   0.0000E+00  0.0000E+00  0.0000E+00  0.0000E+00  0.0000E+00  0.0000E+00  0.0000E+00  0.0000E+00  0.0000E+00  0.0000E+00
   0.0000E+00  0.0000E+00  0.0000E+00  0.0000E+00  0.0000E+00  0.0000E+00  0.0000E+00  0.0000E+00  0.0000E+00  0.0000E+00
   0.0000E+00  0.0000E+00  0.0000E+00  0.0000E+00  0.0000E+00  0.0000E+00  0.0000E+00  0.0000E+00  0.0000E+00  0.0000E+00
   0.0000E+00  0.0000E+00  0.0000E+00  0.0000E+00  0.0000E+00  0.0000E+00  0.0000E+00  0.0000E+00  0.0000E+00  0.0000E+00
   0.0000E+00  0.0000E+00  0.0000E+00  0.0000E+00  0.0000E+00  0.0000E+00  0.0000E+00  0.0000E+00  0.0000E+00  0.0000E+00
   0.0000E+00  0.0000E+00  0.0000E+00  0.0000E+00  0.0000E+00  0.0000E+00  0.0000E+00  0.0000E+00  0.0000E+00  0.0000E+00
   0.0000E+00  0.0000E+00  0.0000E+00  0.0000E+00  0.0000E+00  0.0000E+00  0.0000E+00  0.0000E+00  0.0000E+00  0.0000E+00
   0.0000E+00  0.0000E+00  0.0000E+00  0.0000E+00  0.0000E+00  0.0000E+00  0.0000E+00  0.0000E+00  0.0000E+00  0.0000E+00
   0.0000E+00
    
 $
    
 WIND DRAG WU
    
 GEN3 ST6 5.7E-7 8.0E-6 4.0 4.0 UP HWANG VECTAU TRUE10
    
 QUAD iquad=8
    
 WCAP
    
 BREA
    
 FRICTION JONSWAP
    
 $
    
 TRIADS
    
 PROP BSBT
    
 $
    
 NGRID 'nest1' 168.5 5.5 0 5.5 3.5 121 77
    
 NESTOUT 'nest1' 'bounds_nest1.dat' OUT 20000102.0000 30 MIN
    
 $
    
 BLOCK 'COMPGRID' NOHEAD 'output_main.mat' LAY 3 HSIGN TM02 DIR TPS DSPR OUT 20000102.0000 30 MIN
    
 $
    
 POINTS 'outpts' FILE 'points_out.dat'
    
 TABLE 'outpts' NOHEAD 'table_outpts.dat' DEP HS HSWELL DIR RTP TM02 DSPR WIND WATLEV  OUT 20000102.0000 30 MIN
    
 $
    
 TEST  1,0
    
 COMPUTE NONSTAT 20000102.0000 30 MIN 20000102.0500
 ** Warning          : Babanin input with non-Babanin dissipation
 ** Warning          : has not been tested                       
 ** No start of computation because of error level:  2
 ** To ignore this error, change [maxerr] with the SET command
    
 STOP
